pglib_opf_case10000_tamu.m
%%%%%%%%%%%%%%%%%%%%%%%%%%%%%%%%%%%%%%%%%%%%%%%%%%%%%%%%%%%%%%%%%%%%%%%%%%%
%%%%                                                                  %%%%%
%%%%    IEEE PES Power Grid Library - Optimal Power Flow - v18.08     %%%%%
%%%%          (https://github.com/power-grid-lib/pglib-opf)           %%%%%
%%%%               Benchmark Group - Typical Operations               %%%%%
%%%%                         31 - July - 2018                         %%%%%
%%%%                                                                  %%%%%
%%%%%%%%%%%%%%%%%%%%%%%%%%%%%%%%%%%%%%%%%%%%%%%%%%%%%%%%%%%%%%%%%%%%%%%%%%%
%
%   This is an entirely synthetic 10,000 bus case, geographically situated
%   in US portion of the WECC system. The case is designed with a 765, 500,
%   345, 230, 161, 138 and 115 kV transmission network to serve a load that
%   roughly mimics the actual population of its geographic footprint. The
%   synthetic transmission system was designed by algorithms described in
%   [1] to be statistically similar to actual transmission system models but
%   without modeling any actual lines.
%
%   When publishing results based on this data, please cite:
%
%   [1] A.B. Birchfield, T. Xu, K.M. Gegner, K.S. Shetye, T.J. Overbye,
%       "Grid Structural Characteristics as Validation Criteria for
%       Synthetic Networks," IEEE Transactions on Power Systems, 2017.
%
%   This is a synthetic power system model that does not represent the
%   actual grid. It was developed as part of the US ARPA-E GRID DATA
%   research project and contains no CEII.
%
%   One-line diagrams and other data formats available at:
%       https://electricgrids.engr.tamu.edu
%
%   October 27, 2017
%
%   Created from ACTIVSg10k.pwb, saved by
%   PowerWorld Simulator, version 20, build date October 19, 2017,
%   then by MATPOWER 6.
%
%   Copyright (c) 2017 by A.B. Birchfield, T. Xu, K.M. Gegner, K.S. Shetye,
%   and T.J. Overbye
%   Licensed under the Creative Commons Attribution 4.0 International license,
%   http://creativecommons.org/licenses/by/4.0/
%
function mpc = pglib_opf_case10000_tamu
mpc.version = '2';
mpc.baseMVA = 100.0;

%% bus data
%	bus_i	type	Pd	Qd	Gs	Bs	area	Vm	Va	baseKV	zone	Vmax	Vmin
mpc.bus = [
	10001	 1	 9.64	 2.54	 0.0	 0.0	 1	    1.00000	    0.00000	 138.0	 1	    1.10000	    0.90000;
	10002	 1	 15.98	 6.04	 0.0	 0.0	 1	    1.00000	    0.00000	 138.0	 1	    1.10000	    0.90000;
	10003	 1	 14.39	 1.09	 0.0	 0.0	 1	    1.00000	    0.00000	 138.0	 1	    1.10000	    0.90000;
	10004	 1	 0.0	 0.0	 0.0	 0.0	 1	    1.00000	    0.00000	 138.0	 1	    1.10000	    0.90000;
	10005	 1	 10.45	 2.75	 0.0	 0.0	 1	    1.00000	    0.00000	 138.0	 1	    1.10000	    0.90000;
	10006	 1	 13.44	 1.28	 0.0	 0.0	 1	    1.00000	    0.00000	 138.0	 1	    1.10000	    0.90000;
	10007	 1	 0.0	 0.0	 0.0	 0.0	 1	    1.00000	    0.00000	 138.0	 1	    1.10000	    0.90000;
	10008	 1	 0.0	 0.0	 0.0	 0.0	 1	    1.00000	    0.00000	 138.0	 1	    1.10000	    0.90000;
	10009	 1	 16.82	 2.59	 0.0	 0.0	 1	    1.00000	    0.00000	 138.0	 1	    1.10000	    0.90000;
	10010	 1	 33.49	 15.14	 0.0	 0.0	 1	    1.00000	    0.00000	 138.0	 1	    1.10000	    0.90000;
	10011	 1	 32.02	 8.17	 0.0	 0.0	 1	    1.00000	    0.00000	 138.0	 1	    1.10000	    0.90000;
	10012	 1	 0.0	 0.0	 0.0	 0.0	 1	    1.00000	    0.00000	 345.0	 1	    1.10000	    0.90000;
	10013	 1	 57.79	 30.06	 0.0	 0.0	 1	    1.00000	    0.00000	 138.0	 1	    1.10000	    0.90000;
	10014	 1	 0.0	 0.0	 0.0	 0.0	 1	    1.00000	    0.00000	 138.0	 1	    1.10000	    0.90000;
	10015	 1	 25.01	 11.8	 0.0	 0.0	 1	    1.00000	    0.00000	 138.0	 1	    1.10000	    0.90000;
	10016	 1	 0.0	 0.0	 0.0	 0.0	 1	    1.00000	    0.00000	 138.0	 1	    1.10000	    0.90000;
	10017	 1	 25.89	 7.16	 0.0	 0.0	 1	    1.00000	    0.00000	 138.0	 1	    1.10000	    0.90000;
	10018	 1	 24.47	 6.19	 0.0	 0.0	 1	    1.00000	    0.00000	 138.0	 1	    1.10000	    0.90000;
	10019	 1	 0.0	 0.0	 0.0	 0.0	 1	    1.00000	    0.00000	 345.0	 1	    1.10000	    0.90000;
	10020	 1	 53.35	 4.54	 0.0	 32.0	 1	    1.00000	    0.00000	 138.0	 1	    1.10000	    0.90000;
	10021	 1	 8.99	 2.13	 0.0	 0.0	 1	    1.00000	    0.00000	 138.0	 1	    1.10000	    0.90000;
	10022	 1	 48.19	 15.92	 0.0	 0.0	 1	    1.00000	    0.00000	 138.0	 1	    1.10000	    0.90000;
	10023	 1	 0.0	 0.0	 0.0	 0.0	 1	    1.00000	    0.00000	 345.0	 1	    1.10000	    0.90000;
	10024	 1	 43.96	 8.97	 0.0	 0.0	 1	    1.00000	    0.00000	 138.0	 1	    1.10000	    0.90000;
	10025	 1	 30.89	 12.76	 0.0	 0.0	 1	    1.00000	    0.00000	 138.0	 1	    1.10000	    0.90000;
	10026	 1	 18.65	 4.97	 0.0	 0.0	 1	    1.00000	    0.00000	 138.0	 1	    1.10000	    0.90000;
	10027	 1	 0.0	 0.0	 0.0	 0.0	 1	    1.00000	    0.00000	 138.0	 1	    1.10000	    0.90000;
	10028	 1	 32.23	 12.72	 0.0	 0.0	 1	    1.00000	    0.00000	 138.0	 1	    1.10000	    0.90000;
	10029	 1	 32.23	 1.85	 0.0	 0.0	 1	    1.00000	    0.00000	 138.0	 1	    1.10000	    0.90000;
	10030	 1	 0.0	 0.0	 0.0	 0.0	 1	    1.00000	    0.00000	 138.0	 1	    1.10000	    0.90000;
	10031	 1	 39.8	 7.18	 0.0	 0.0	 1	    1.00000	    0.00000	 138.0	 1	    1.10000	    0.90000;
	10032	 1	 41.5	 5.68	 0.0	 0.0	 1	    1.00000	    0.00000	 138.0	 1	    1.10000	    0.90000;
	10033	 1	 59.05	 6.96	 0.0	 0.0	 1	    1.00000	    0.00000	 138.0	 1	    1.10000	    0.90000;
	10034	 1	 0.0	 0.0	 0.0	 0.0	 1	    1.00000	    0.00000	 138.0	 1	    1.10000	    0.90000;
	10035	 1	 59.05	 42.65	 0.0	 0.0	 1	    1.00000	    0.00000	 138.0	 1	    1.10000	    0.90000;
	10036	 1	 0.0	 0.0	 0.0	 0.0	 1	    1.00000	    0.00000	 138.0	 1	    1.10000	    0.90000;
	10037	 1	 58.29	 11.32	 0.0	 0.0	 1	    1.00000	    0.00000	 138.0	 1	    1.10000	    0.90000;
	10038	 1	 36.59	 13.17	 0.0	 0.0	 1	    1.00000	    0.00000	 138.0	 1	    1.10000	    0.90000;
	10039	 1	 0.0	 0.0	 0.0	 0.0	 1	    1.00000	    0.00000	 138.0	 1	    1.10000	    0.90000;
	10040	 1	 43.57	 13.69	 0.0	 0.0	 1	    1.00000	    0.00000	 138.0	 1	    1.10000	    0.90000;
	10041	 1	 20.08	 9.93	 0.0	 0.0	 1	    1.00000	    0.00000	 138.0	 1	    1.10000	    0.90000;
	10042	 1	 59.25	 11.36	 0.0	 0.0	 1	    1.00000	    0.00000	 138.0	 1	    1.10000	    0.90000;
	10043	 1	 0.0	 0.0	 0.0	 0.0	 1	    1.00000	    0.00000	 138.0	 1	    1.10000	    0.90000;
	10044	 1	 37.54	 1.74	 0.0	 0.0	 1	    1.00000	    0.00000	 138.0	 1	    1.10000	    0.90000;
	10045	 1	 25.35	 12.91	 0.0	 0.0	 1	    1.00000	    0.00000	 138.0	 1	    1.10000	    0.90000;
	10046	 1	 0.0	 0.0	 0.0	 0.0	 1	    1.00000	    0.00000	 138.0	 1	    1.10000	    0.90000;
	10047	 1	 45.76	 5.94	 0.0	 0.0	 1	    1.00000	    0.00000	 138.0	 1	    1.10000	    0.90000;
	10048	 1	 45.76	 10.24	 0.0	 0.0	 1	    1.00000	    0.00000	 138.0	 1	    1.10000	    0.90000;
	10049	 1	 0.0	 0.0	 0.0	 0.0	 1	    1.00000	    0.00000	 138.0	 1	    1.10000	    0.90000;
	10050	 1	 0.0	 0.0	 0.0	 0.0	 1	    1.00000	    0.00000	 138.0	 1	    1.10000	    0.90000;
	10051	 1	 0.0	 0.0	 0.0	 0.0	 1	    1.00000	    0.00000	 138.0	 1	    1.10000	    0.90000;
	10052	 1	 17.51	 1.94	 0.0	 0.0	 1	    1.00000	    0.00000	 138.0	 1	    1.10000	    0.90000;
	10053	 1	 43.68	 4.56	 0.0	 0.0	 1	    1.00000	    0.00000	 138.0	 1	    1.10000	    0.90000;
	10054	 1	 43.32	 16.13	 0.0	 0.0	 1	    1.00000	    0.00000	 138.0	 1	    1.10000	    0.90000;
	10055	 1	 17.57	 5.16	 0.0	 0.0	 1	    1.00000	    0.00000	 138.0	 1	    1.10000	    0.90000;
	10056	 1	 0.0	 0.0	 0.0	 0.0	 1	    1.00000	    0.00000	 138.0	 1	    1.10000	    0.90000;
	10057	 1	 0.0	 0.0	 0.0	 0.0	 1	    1.00000	    0.00000	 345.0	 1	    1.10000	    0.90000;
	10058	 1	 43.93	 8.14	 0.0	 0.0	 1	    1.00000	    0.00000	 138.0	 1	    1.10000	    0.90000;
	10059	 1	 0.0	 0.0	 0.0	 0.0	 1	    1.00000	    0.00000	 345.0	 1	    1.10000	    0.90000;
	10060	 1	 43.93	 27.62	 0.0	 0.0	 1	    1.00000	    0.00000	 138.0	 1	    1.10000	    0.90000;
	10061	 1	 51.07	 18.71	 0.0	 22.0	 1	    1.00000	    0.00000	 138.0	 1	    1.10000	    0.90000;
	10062	 1	 0.0	 0.0	 0.0	 0.0	 1	    1.00000	    0.00000	 138.0	 1	    1.10000	    0.90000;
	10063	 1	 0.0	 0.0	 0.0	 0.0	 1	    1.00000	    0.00000	 138.0	 1	    1.10000	    0.90000;
	10064	 1	 36.24	 9.3	 0.0	 0.0	 1	    1.00000	    0.00000	 138.0	 1	    1.10000	    0.90000;
	10065	 1	 46.26	 6.82	 0.0	 0.0	 1	    1.00000	    0.00000	 138.0	 1	    1.10000	    0.90000;
	10066	 1	 0.0	 0.0	 0.0	 0.0	 1	    1.00000	    0.00000	 13.8	 1	    1.10000	    0.90000;
	10067	 1	 0.0	 0.0	 0.0	 0.0	 1	    1.00000	    0.00000	 13.8	 1	    1.10000	    0.90000;
	10068	 1	 0.0	 0.0	 0.0	 0.0	 1	    1.00000	    0.00000	 1.0	 1	    1.10000	    0.90000;
	10069	 1	 58.86	 14.48	 0.0	 0.0	 1	    1.00000	    0.00000	 138.0	 1	    1.10000	    0.90000;
	10070	 1	 11.07	 0.16	 0.0	 0.0	 1	    1.00000	    0.00000	 138.0	 1	    1.10000	    0.90000;
	10071	 1	 38.37	 10.34	 0.0	 0.0	 1	    1.00000	    0.00000	 138.0	 1	    1.10000	    0.90000;
	10072	 1	 0.0	 0.0	 0.0	 0.0	 1	    1.00000	    0.00000	 138.0	 1	    1.10000	    0.90000;
	10073	 1	 38.37	 20.18	 0.0	 0.0	 1	    1.00000	    0.00000	 138.0	 1	    1.10000	    0.90000;
	10074	 1	 0.0	 0.0	 0.0	 0.0	 1	    1.00000	    0.00000	 138.0	 1	    1.10000	    0.90000;
	10075	 1	 14.72	 4.64	 0.0	 0.0	 1	    1.00000	    0.00000	 138.0	 1	    1.10000	    0.90000;
	10076	 1	 27.96	 2.98	 0.0	 0.0	 1	    1.00000	    0.00000	 138.0	 1	    1.10000	    0.90000;
	10077	 1	 28.46	 7.93	 0.0	 0.0	 1	    1.00000	    0.00000	 138.0	 1	    1.10000	    0.90000;
	10078	 1	 0.0	 0.0	 0.0	 0.0	 1	    1.00000	    0.00000	 345.0	 1	    1.10000	    0.90000;
	10079	 1	 55.86	 12.51	 0.0	 0.0	 1	    1.00000	    0.00000	 138.0	 1	    1.10000	    0.90000;
	10080	 1	 0.0	 0.0	 0.0	 0.0	 1	    1.00000	    0.00000	 24.0	 1	    1.10000	    0.90000;
	10081	 1	 0.0	 0.0	 0.0	 0.0	 1	    1.00000	    0.00000	 1.0	 1	    1.10000	    0.90000;
	10082	 1	 0.0	 0.0	 0.0	 0.0	 1	    1.00000	    0.00000	 138.0	 1	    1.10000	    0.90000;
	10083	 1	 22.32	 8.77	 0.0	 0.0	 1	    1.00000	    0.00000	 138.0	 1	    1.10000	    0.90000;
	10084	 1	 0.0	 0.0	 0.0	 0.0	 1	    1.00000	    0.00000	 138.0	 1	    1.10000	    0.90000;
	10085	 1	 40.86	 5.87	 0.0	 0.0	 1	    1.00000	    0.00000	 138.0	 1	    1.10000	    0.90000;
	10086	 1	 0.0	 0.0	 0.0	 0.0	 1	    1.00000	    0.00000	 138.0	 1	    1.10000	    0.90000;
	10087	 1	 10.87	 8.58	 0.0	 0.0	 1	    1.00000	    0.00000	 138.0	 1	    1.10000	    0.90000;
	10088	 1	 0.0	 0.0	 0.0	 0.0	 1	    1.00000	    0.00000	 138.0	 1	    1.10000	    0.90000;
	10089	 1	 33.23	 4.19	 0.0	 0.0	 1	    1.00000	    0.00000	 138.0	 1	    1.10000	    0.90000;
	10090	 1	 33.23	 6.75	 0.0	 0.0	 1	    1.00000	    0.00000	 138.0	 1	    1.10000	    0.90000;
	10091	 1	 37.67	 4.7	 0.0	 0.0	 1	    1.00000	    0.00000	 138.0	 1	    1.10000	    0.90000;
	10092	 1	 31.46	 1.7	 0.0	 0.0	 1	    1.00000	    0.00000	 138.0	 1	    1.10000	    0.90000;
	10093	 1	 31.46	 11.16	 0.0	 0.0	 1	    1.00000	    0.00000	 138.0	 1	    1.10000	    0.90000;
	10094	 1	 0.0	 0.0	 0.0	 0.0	 1	    1.00000	    0.00000	 138.0	 1	    1.10000	    0.90000;
	10095	 1	 0.0	 0.0	 0.0	 0.0	 1	    1.00000	    0.00000	 138.0	 1	    1.10000	    0.90000;
	10096	 1	 18.02	 4.43	 0.0	 0.0	 1	    1.00000	    0.00000	 138.0	 1	    1.10000	    0.90000;
	10097	 1	 31.02	 5.28	 0.0	 0.0	 1	    1.00000	    0.00000	 138.0	 1	    1.10000	    0.90000;
	10098	 1	 19.84	 5.6	 0.0	 0.0	 1	    1.00000	    0.00000	 138.0	 1	    1.10000	    0.90000;
	10099	 1	 0.0	 0.0	 0.0	 0.0	 1	    1.00000	    0.00000	 138.0	 1	    1.10000	    0.90000;
	10100	 1	 0.0	 0.0	 0.0	 0.0	 1	    1.00000	    0.00000	 138.0	 1	    1.10000	    0.90000;
	10101	 1	 0.0	 0.0	 0.0	 0.0	 1	    1.00000	    0.00000	 138.0	 1	    1.10000	    0.90000;
	10102	 1	 33.88	 8.27	 0.0	 0.0	 1	    1.00000	    0.00000	 138.0	 1	    1.10000	    0.90000;
	10103	 1	 0.0	 0.0	 0.0	 0.0	 1	    1.00000	    0.00000	 138.0	 1	    1.10000	    0.90000;
	10104	 1	 57.74	 17.1	 0.0	 0.0	 1	    1.00000	    0.00000	 138.0	 1	    1.10000	    0.90000;
	10105	 1	 0.0	 0.0	 0.0	 0.0	 1	    1.00000	    0.00000	 138.0	 1	    1.10000	    0.90000;
	10106	 1	 51.34	 13.64	 0.0	 0.0	 1	    1.00000	    0.00000	 138.0	 1	    1.10000	    0.90000;
	10107	 1	 26.95	 1.82	 0.0	 0.0	 1	    1.00000	    0.00000	 138.0	 1	    1.10000	    0.90000;
	10108	 1	 0.0	 0.0	 0.0	 0.0	 1	    1.00000	    0.00000	 138.0	 1	    1.10000	    0.90000;
	10109	 1	 0.0	 0.0	 0.0	 0.0	 1	    1.00000	    0.00000	 138.0	 1	    1.10000	    0.90000;
	10110	 1	 12.48	 4.31	 0.0	 0.0	 1	    1.00000	    0.00000	 138.0	 1	    1.10000	    0.90000;
	10111	 1	 0.0	 0.0	 0.0	 0.0	 1	    1.00000	    0.00000	 138.0	 1	    1.10000	    0.90000;
	10112	 1	 11.2	 2.7	 0.0	 0.0	 1	    1.00000	    0.00000	 138.0	 1	    1.10000	    0.90000;
	10113	 1	 0.0	 0.0	 0.0	 0.0	 1	    1.00000	    0.00000	 138.0	 1	    1.10000	    0.90000;
	10114	 1	 31.06	 13.53	 0.0	 0.0	 1	    1.00000	    0.00000	 138.0	 1	    1.10000	    0.90000;
	10115	 1	 31.06	 11.74	 0.0	 0.0	 1	    1.00000	    0.00000	 138.0	 1	    1.10000	    0.90000;
	10116	 1	 47.94	 5.39	 0.0	 0.0	 1	    1.00000	    0.00000	 138.0	 1	    1.10000	    0.90000;
	10117	 1	 0.0	 0.0	 0.0	 0.0	 1	    1.00000	    0.00000	 345.0	 1	    1.10000	    0.90000;
	10118	 1	 45.39	 21.63	 0.0	 0.0	 1	    1.00000	    0.00000	 138.0	 1	    1.10000	    0.90000;
	10119	 1	 0.0	 0.0	 0.0	 0.0	 1	    1.00000	    0.00000	 13.8	 1	    1.10000	    0.90000;
	10120	 1	 0.0	 0.0	 0.0	 0.0	 1	    1.00000	    0.00000	 1.0	 1	    1.10000	    0.90000;
	10121	 1	 0.0	 0.0	 0.0	 0.0	 1	    1.00000	    0.00000	 138.0	 1	    1.10000	    0.90000;
	10122	 1	 35.43	 19.18	 0.0	 0.0	 1	    1.00000	    0.00000	 138.0	 1	    1.10000	    0.90000;
	10123	 1	 0.0	 0.0	 0.0	 0.0	 1	    1.00000	    0.00000	 138.0	 1	    1.10000	    0.90000;
	10124	 1	 0.0	 0.0	 0.0	 0.0	 1	    1.00000	    0.00000	 138.0	 1	    1.10000	    0.90000;
	10125	 1	 35.43	 7.06	 0.0	 0.0	 1	    1.00000	    0.00000	 138.0	 1	    1.10000	    0.90000;
	10126	 1	 0.0	 0.0	 0.0	 0.0	 1	    1.00000	    0.00000	 138.0	 1	    1.10000	    0.90000;
	10127	 1	 0.0	 0.0	 0.0	 0.0	 1	    1.00000	    0.00000	 345.0	 1	    1.10000	    0.90000;
	10128	 1	 44.89	 16.27	 0.0	 0.0	 1	    1.00000	    0.00000	 138.0	 1	    1.10000	    0.90000;
	10129	 1	 50.09	 14.75	 0.0	 0.0	 1	    1.00000	    0.00000	 138.0	 1	    1.10000	    0.90000;
	10130	 1	 50.09	 14.37	 0.0	 0.0	 1	    1.00000	    0.00000	 138.0	 1	    1.10000	    0.90000;
	10131	 1	 0.0	 0.0	 0.0	 0.0	 1	    1.00000	    0.00000	 138.0	 1	    1.10000	    0.90000;
	10132	 1	 41.72	 12.38	 0.0	 0.0	 1	    1.00000	    0.00000	 138.0	 1	    1.10000	    0.90000;
	10133	 1	 0.0	 0.0	 0.0	 0.0	 1	    1.00000	    0.00000	 138.0	 1	    1.10000	    0.90000;
	10134	 1	 71.03	 8.23	 0.0	 0.0	 1	    1.00000	    0.00000	 138.0	 1	    1.10000	    0.90000;
	10135	 1	 61.01	 13.93	 0.0	 0.0	 1	    1.00000	    0.00000	 138.0	 1	    1.10000	    0.90000;
	10136	 1	 0.0	 0.0	 0.0	 0.0	 1	    1.00000	    0.00000	 138.0	 1	    1.10000	    0.90000;
	10137	 1	 20.07	 5.15	 0.0	 0.0	 1	    1.00000	    0.00000	 138.0	 1	    1.10000	    0.90000;
	10138	 1	 38.05	 7.43	 0.0	 0.0	 1	    1.00000	    0.00000	 138.0	 1	    1.10000	    0.90000;
	10139	 1	 35.0	 8.78	 0.0	 0.0	 1	    1.00000	    0.00000	 138.0	 1	    1.10000	    0.90000;
	10140	 1	 16.07	 5.79	 0.0	 0.0	 1	    1.00000	    0.00000	 138.0	 1	    1.10000	    0.90000;
	10141	 1	 41.11	 16.66	 0.0	 0.0	 1	    1.00000	    0.00000	 138.0	 1	    1.10000	    0.90000;
	10142	 1	 41.11	 1.31	 0.0	 0.0	 1	    1.00000	    0.00000	 138.0	 1	    1.10000	    0.90000;
	10143	 1	 0.0	 0.0	 0.0	 0.0	 1	    1.00000	    0.00000	 138.0	 1	    1.10000	    0.90000;
	10144	 1	 0.0	 0.0	 0.0	 0.0	 1	    1.00000	    0.00000	 138.0	 1	    1.10000	    0.90000;
	10145	 1	 37.97	 9.24	 0.0	 0.0	 1	    1.00000	    0.00000	 138.0	 1	    1.10000	    0.90000;
	10146	 1	 37.97	 9.3	 0.0	 0.0	 1	    1.00000	    0.00000	 138.0	 1	    1.10000	    0.90000;
	10147	 1	 0.0	 0.0	 0.0	 0.0	 1	    1.00000	    0.00000	 138.0	 1	    1.10000	    0.90000;
	10148	 1	 52.25	 24.72	 0.0	 0.0	 1	    1.00000	    0.00000	 138.0	 1	    1.10000	    0.90000;
	10149	 1	 0.0	 0.0	 0.0	 0.0	 1	    1.00000	    0.00000	 138.0	 1	    1.10000	    0.90000;
	10150	 1	 7.99	 4.67	 0.0	 0.0	 1	    1.00000	    0.00000	 18.0	 1	    1.10000	    0.90000;
	10151	 1	 11.73	 1.24	 0.0	 0.0	 1	    1.00000	    0.00000	 18.0	 1	    1.10000	    0.90000;
	10152	 1	 0.0	 0.0	 0.0	 0.0	 1	    1.00000	    0.00000	 1.0	 1	    1.10000	    0.90000;
	10153	 1	 35.35	 3.89	 0.0	 0.0	 1	    1.00000	    0.00000	 138.0	 1	    1.10000	    0.90000;
	10154	 1	 33.06	 13.11	 0.0	 0.0	 1	    1.00000	    0.00000	 138.0	 1	    1.10000	    0.90000;
	10155	 1	 0.0	 0.0	 0.0	 0.0	 1	    1.00000	    0.00000	 138.0	 1	    1.10000	    0.90000;
	10156	 1	 33.52	 4.02	 0.0	 0.0	 1	    1.00000	    0.00000	 138.0	 1	    1.10000	    0.90000;
	10157	 1	 32.33	 10.35	 0.0	 80.0	 1	    1.00000	    0.00000	 138.0	 1	    1.10000	    0.90000;
	10158	 1	 0.0	 0.0	 0.0	 0.0	 1	    1.00000	    0.00000	 138.0	 1	    1.10000	    0.90000;
	10159	 1	 15.22	 4.81	 0.0	 0.0	 1	    1.00000	    0.00000	 138.0	 1	    1.10000	    0.90000;
	10160	 1	 55.26	 20.75	 0.0	 0.0	 1	    1.00000	    0.00000	 138.0	 1	    1.10000	    0.90000;
	10161	 1	 0.0	 0.0	 0.0	 0.0	 1	    1.00000	    0.00000	 138.0	 1	    1.10000	    0.90000;
	10162	 1	 25.6	 5.53	 0.0	 0.0	 1	    1.00000	    0.00000	 138.0	 1	    1.10000	    0.90000;
	10163	 1	 0.0	 0.0	 0.0	 0.0	 1	    1.00000	    0.00000	 138.0	 1	    1.10000	    0.90000;
	10164	 1	 26.64	 6.54	 0.0	 0.0	 1	    1.00000	    0.00000	 138.0	 1	    1.10000	    0.90000;
	10165	 1	 0.0	 0.0	 0.0	 0.0	 1	    1.00000	    0.00000	 138.0	 1	    1.10000	    0.90000;
	10166	 1	 47.72	 5.4	 0.0	 0.0	 1	    1.00000	    0.00000	 138.0	 1	    1.10000	    0.90000;
	10167	 1	 32.36	 10.77	 0.0	 0.0	 1	    1.00000	    0.00000	 138.0	 1	    1.10000	    0.90000;
	10168	 1	 32.36	 10.63	 0.0	 0.0	 1	    1.00000	    0.00000	 138.0	 1	    1.10000	    0.90000;
	10169	 1	 0.0	 0.0	 0.0	 0.0	 1	    1.00000	    0.00000	 138.0	 1	    1.10000	    0.90000;
	10170	 1	 14.51	 0.92	 0.0	 0.0	 1	    1.00000	    0.00000	 138.0	 1	    1.10000	    0.90000;
	10171	 1	 51.86	 8.23	 0.0	 0.0	 1	    1.00000	    0.00000	 138.0	 1	    1.10000	    0.90000;
	10172	 1	 0.0	 0.0	 0.0	 0.0	 1	    1.00000	    0.00000	 138.0	 1	    1.10000	    0.90000;
	10173	 1	 0.0	 0.0	 0.0	 0.0	 1	    1.00000	    0.00000	 138.0	 1	    1.10000	    0.90000;
	10174	 1	 41.08	 5.55	 0.0	 0.0	 1	    1.00000	    0.00000	 138.0	 1	    1.10000	    0.90000;
	10175	 1	 41.08	 12.71	 0.0	 0.0	 1	    1.00000	    0.00000	 138.0	 1	    1.10000	    0.90000;
	10176	 1	 0.0	 0.0	 0.0	 0.0	 1	    1.00000	    0.00000	 138.0	 1	    1.10000	    0.90000;
	10177	 1	 37.0	 12.28	 0.0	 0.0	 1	    1.00000	    0.00000	 138.0	 1	    1.10000	    0.90000;
	10178	 1	 37.0	 6.33	 0.0	 0.0	 1	    1.00000	    0.00000	 138.0	 1	    1.10000	    0.90000;
	10179	 1	 55.41	 4.59	 0.0	 0.0	 1	    1.00000	    0.00000	 138.0	 1	    1.10000	    0.90000;
	10180	 1	 1.46	 0.56	 0.0	 0.0	 1	    1.00000	    0.00000	 138.0	 1	    1.10000	    0.90000;
	10181	 1	 0.0	 0.0	 0.0	 0.0	 1	    1.00000	    0.00000	 138.0	 1	    1.10000	    0.90000;
	10182	 1	 55.41	 4.8	 0.0	 0.0	 1	    1.00000	    0.00000	 138.0	 1	    1.10000	    0.90000;
	10183	 1	 48.59	 5.25	 0.0	 0.0	 1	    1.00000	    0.00000	 138.0	 1	    1.10000	    0.90000;
	10184	 1	 0.0	 0.0	 0.0	 0.0	 1	    1.00000	    0.00000	 138.0	 1	    1.10000	    0.90000;
	10185	 1	 68.06	 27.25	 0.0	 0.0	 1	    1.00000	    0.00000	 138.0	 1	    1.10000	    0.90000;
	10186	 1	 0.0	 0.0	 0.0	 0.0	 1	    1.00000	    0.00000	 138.0	 1	    1.10000	    0.90000;
	10187	 1	 37.59	 7.22	 0.0	 0.0	 1	    1.00000	    0.00000	 138.0	 1	    1.10000	    0.90000;
	10188	 1	 51.74	 17.55	 0.0	 0.0	 1	    1.00000	    0.00000	 138.0	 1	    1.10000	    0.90000;
	10189	 1	 0.0	 0.0	 0.0	 0.0	 1	    1.00000	    0.00000	 138.0	 1	    1.10000	    0.90000;
	10190	 1	 0.0	 0.0	 0.0	 0.0	 1	    1.00000	    0.00000	 138.0	 1	    1.10000	    0.90000;
	10191	 1	 63.47	 6.05	 0.0	 0.0	 1	    1.00000	    0.00000	 138.0	 1	    1.10000	    0.90000;
	10192	 1	 0.0	 0.0	 0.0	 0.0	 1	    1.00000	    0.00000	 345.0	 1	    1.10000	    0.90000;
	10193	 1	 63.47	 25.63	 0.0	 0.0	 1	    1.00000	    0.00000	 138.0	 1	    1.10000	    0.90000;
	10194	 1	 0.0	 0.0	 0.0	 0.0	 1	    1.00000	    0.00000	 24.0	 1	    1.10000	    0.90000;
	10195	 1	 0.0	 0.0	 0.0	 0.0	 1	    1.00000	    0.00000	 1.0	 1	    1.10000	    0.90000;
	10196	 1	 0.0	 0.0	 0.0	 0.0	 1	    1.00000	    0.00000	 345.0	 1	    1.10000	    0.90000;
	10197	 1	 0.0	 0.0	 0.0	 0.0	 1	    1.00000	    0.00000	 138.0	 1	    1.10000	    0.90000;
	10198	 1	 55.17	 29.09	 0.0	 0.0	 1	    1.00000	    0.00000	 345.0	 1	    1.10000	    0.90000;
	10199	 1	 25.51	 11.27	 0.0	 0.0	 1	    1.00000	    0.00000	 138.0	 1	    1.10000	    0.90000;
	10200	 1	 57.98	 19.56	 0.0	 0.0	 1	    1.00000	    0.00000	 138.0	 1	    1.10000	    0.90000;
...
];

%% generator data
%	bus	Pg	Qg	Qmax	Qmin	Vg	mBase	status	Pmax	Pmin	Pc1	Pc2	Qc1min	Qc1max	Qc2min	Qc2max	ramp_agc	ramp_10	ramp_30	ramp_q	apf
mpc.gen = [
	10683	 105.64	 26.68	 61.16	 -7.8	 1.0464	 207.74	 0	 159.27	 52.01	 0.0	 0.0	 0.0	 0.0	 0.0	 0.0	 0.0	 0.0	 0.0	 0.0	 159.27;
	10684	 85.29	 26.68	 61.16	 -7.8	 1.0203	 201.13	 1	 85.29	 85.29	 0.0	 0.0	 0.0	 0.0	 0.0	 0.0	 0.0	 0.0	 0.0	 0.0	 159.2667;
	10685	 138.65	 26.68	 61.16	 -7.8	 1.0203	 217.36	 1	 138.65	 138.65	 0.0	 0.0	 0.0	 0.0	 0.0	 0.0	 0.0	 0.0	 0.0	 0.0	 159.2667;
	10686	 107.655	 26.68	 61.16	 -7.8	 1.0464	 214.15	 0	 159.27	 56.04	 0.0	 0.0	 0.0	 0.0	 0.0	 0.0	 0.0	 0.0	 0.0	 0.0	 159.2667;
	10687	 120.63	 26.68	 61.16	 -7.8	 1.019	 188.08	 1	 120.63	 120.63	 0.0	 0.0	 0.0	 0.0	 0.0	 0.0	 0.0	 0.0	 0.0	 0.0	 159.2667;
	10688	 109.93	 26.68	 61.16	 -7.8	 1.0208	 201.28	 1	 109.93	 109.93	 0.0	 0.0	 0.0	 0.0	 0.0	 0.0	 0.0	 0.0	 0.0	 0.0	 159.2667;
	10689	 9.02	 2.16	 4.95	 -0.63	 1.0014	 12.9	 1	 9.02	 9.02	 0.0	 0.0	 0.0	 0.0	 0.0	 0.0	 0.0	 0.0	 0.0	 0.0	 12.9;
	10691	 59.72	 3.415	 21.07	 -14.24	 1.0063	 98.92	 1	 59.72	 59.72	 0.0	 0.0	 0.0	 0.0	 0.0	 0.0	 0.0	 0.0	 0.0	 0.0	 98.9;
	10694	 23.02	 5.865	 13.44	 -1.71	 1.0483	 35.08	 1	 23.02	 23.02	 0.0	 0.0	 0.0	 0.0	 0.0	 0.0	 0.0	 0.0	 0.0	 0.0	 35.0;
	10695	 25.55	 5.865	 13.44	 -1.71	 1.0484	 41.36	 1	 25.55	 25.55	 0.0	 0.0	 0.0	 0.0	 0.0	 0.0	 0.0	 0.0	 0.0	 0.0	 35.0;
	10699	 79.42	 3.475	 21.45	 -14.5	 1.0019	 120.64	 1	 79.42	 79.42	 0.0	 0.0	 0.0	 0.0	 0.0	 0.0	 0.0	 0.0	 0.0	 0.0	 100.7;
	10703	 136.3	 4.7	 29.03	 -19.63	 1.0605	 174.64	 1	 136.3	 136.3	 0.0	 0.0	 0.0	 0.0	 0.0	 0.0	 0.0	 0.0	 0.0	 0.0	 136.3;
	10710	 171.16	 36.28	 83.17	 -10.61	 1.0096	 238.48	 1	 171.16	 171.16	 0.0	 0.0	 0.0	 0.0	 0.0	 0.0	 0.0	 0.0	 0.0	 0.0	 216.6;
	10711	 189.67	 36.28	 83.17	 -10.61	 1.01	 219.83	 1	 189.67	 189.67	 0.0	 0.0	 0.0	 0.0	 0.0	 0.0	 0.0	 0.0	 0.0	 0.0	 216.6;
	10712	 135.95	 36.28	 83.17	 -10.61	 1.0097	 219.92	 1	 135.95	 135.95	 0.0	 0.0	 0.0	 0.0	 0.0	 0.0	 0.0	 0.0	 0.0	 0.0	 216.6;
	10713	 189.37	 36.28	 83.17	 -10.61	 1.01	 259.93	 1	 189.37	 189.37	 0.0	 0.0	 0.0	 0.0	 0.0	 0.0	 0.0	 0.0	 0.0	 0.0	 216.6;
	10714	 129.665	 36.28	 83.17	 -10.61	 1.0296	 235.85	 0	 216.6	 42.73	 0.0	 0.0	 0.0	 0.0	 0.0	 0.0	 0.0	 0.0	 0.0	 0.0	 216.6;
	10715	 172.43	 36.28	 83.17	 -10.61	 1.0166	 279.75	 1	 172.43	 172.43	 0.0	 0.0	 0.0	 0.0	 0.0	 0.0	 0.0	 0.0	 0.0	 0.0	 216.6;
	10722	 68.84	 17.57	 40.28	 -5.14	 1.0344	 131.4	 0	 104.9	 32.78	 0.0	 0.0	 0.0	 0.0	 0.0	 0.0	 0.0	 0.0	 0.0	 0.0	 104.9;
	10723	 82.25	 17.57	 40.28	 -5.14	 1.0007	 152.84	 1	 82.25	 82.25	 0.0	 0.0	 0.0	 0.0	 0.0	 0.0	 0.0	 0.0	 0.0	 0.0	 104.9;
	10724	 104.9	 17.57	 40.28	 -5.14	 1.0018	 115.76	 1	 104.9	 104.9	 0.0	 0.0	 0.0	 0.0	 0.0	 0.0	 0.0	 0.0	 0.0	 0.0	 104.9;
	10725	 71.29	 17.57	 40.28	 -5.14	 1.0026	 116.27	 1	 71.29	 71.29	 0.0	 0.0	 0.0	 0.0	 0.0	 0.0	 0.0	 0.0	 0.0	 0.0	 104.9;
	10726	 71.08	 17.57	 40.28	 -5.14	 1.0029	 106.56	 1	 71.08	 71.08	 0.0	 0.0	 0.0	 0.0	 0.0	 0.0	 0.0	 0.0	 0.0	 0.0	 104.9;
	10727	 66.575	 17.57	 40.28	 -5.14	 1.0344	 122.59	 0	 104.9	 28.25	 0.0	 0.0	 0.0	 0.0	 0.0	 0.0	 0.0	 0.0	 0.0	 0.0	 104.9;
	10728	 23.81	 4.68	 10.73	 -1.37	 1.0177	 32.27	 1	 23.81	 23.81	 0.0	 0.0	 0.0	 0.0	 0.0	 0.0	 0.0	 0.0	 0.0	 0.0	 27.95;
	10728	 17.465	 4.68	 10.73	 -1.37	 1.0177	 35.8	 0	 27.95	 6.98	 0.0	 0.0	 0.0	 0.0	 0.0	 0.0	 0.0	 0.0	 0.0	 0.0	 27.95;
	10729	 16.99	 4.68	 10.73	 -1.37	 1.0133	 27.95	 0	 27.95	 6.03	 0.0	 0.0	 0.0	 0.0	 0.0	 0.0	 0.0	 0.0	 0.0	 0.0	 27.95;
	10729	 20.46	 4.68	 10.73	 -1.37	 1.0133	 32.33	 1	 20.46	 20.46	 0.0	 0.0	 0.0	 0.0	 0.0	 0.0	 0.0	 0.0	 0.0	 0.0	 27.95;
	10731	 11.28	 2.835	 6.5	 -0.83	 1.0172	 18.62	 0	 16.92	 5.64	 0.0	 0.0	 0.0	 0.0	 0.0	 0.0	 0.0	 0.0	 0.0	 0.0	 16.92;
	10731	 11.89	 2.835	 6.5	 -0.83	 1.0172	 21.25	 0	 16.92	 6.86	 0.0	 0.0	 0.0	 0.0	 0.0	 0.0	 0.0	 0.0	 0.0	 0.0	 16.92;
	10731	 9.98	 2.835	 6.5	 -0.83	 1.0172	 16.92	 0	 16.92	 3.04	 0.0	 0.0	 0.0	 0.0	 0.0	 0.0	 0.0	 0.0	 0.0	 0.0	 16.92;
	10731	 9.83	 2.835	 6.5	 -0.83	 1.0172	 19.89	 1	 9.83	 9.83	 0.0	 0.0	 0.0	 0.0	 0.0	 0.0	 0.0	 0.0	 0.0	 0.0	 16.92;
	10731	 10.54	 2.835	 6.5	 -0.83	 1.0172	 20.51	 0	 16.92	 4.16	 0.0	 0.0	 0.0	 0.0	 0.0	 0.0	 0.0	 0.0	 0.0	 0.0	 16.92;
	10737	 115.85	 31.67	 81.01	 -17.67	 1.0343	 193.29	 1	 159.15	 72.55	 0.0	 0.0	 0.0	 0.0	 0.0	 0.0	 0.0	 0.0	 0.0	 0.0	 159.15;
	10738	 108.845	 31.67	 81.01	 -17.67	 1.0344	 195.43	 1	 159.15	 58.54	 0.0	 0.0	 0.0	 0.0	 0.0	 0.0	 0.0	 0.0	 0.0	 0.0	 159.15;
	10742	 80.0	 13.4	 30.72	 -3.92	 1.0263	 96.14	 1	 80.0	 80.0	 0.0	 0.0	 0.0	 0.0	 0.0	 0.0	 0.0	 0.0	 0.0	 0.0	 80.0;
	10743	 55.985	 13.4	 30.72	 -3.92	 1.0265	 93.18	 0	 80.0	 31.97	 0.0	 0.0	 0.0	 0.0	 0.0	 0.0	 0.0	 0.0	 0.0	 0.0	 80.0;
	10744	 64.23	 13.4	 30.72	 -3.92	 1.0262	 106.35	 1	 64.23	 64.23	 0.0	 0.0	 0.0	 0.0	 0.0	 0.0	 0.0	 0.0	 0.0	 0.0	 80.0;
	10746	 66.35	 3.105	 19.17	 -12.96	 1.0205	 98.26	 1	 66.35	 66.35	 0.0	 0.0	 0.0	 0.0	 0.0	 0.0	 0.0	 0.0	 0.0	 0.0	 90.0;
	10750	 409.37	 68.57	 157.2	 -20.06	 1.0419	 498.65	 1	 409.37	 409.37	 0.0	 0.0	 0.0	 0.0	 0.0	 0.0	 0.0	 0.0	 0.0	 0.0	 409.37;
	10751	 228.385	 68.57	 157.2	 -20.06	 1.0433	 454.46	 0	 409.37	 47.4	 0.0	 0.0	 0.0	 0.0	 0.0	 0.0	 0.0	 0.0	 0.0	 0.0	 409.3667;
	10752	 293.05	 68.57	 157.2	 -20.06	 1.0421	 417.45	 1	 293.05	 293.05	 0.0	 0.0	 0.0	 0.0	 0.0	 0.0	 0.0	 0.0	 0.0	 0.0	 409.3667;
	10753	 229.495	 68.57	 157.2	 -20.06	 1.0433	 459.34	 0	 409.37	 49.62	 0.0	 0.0	 0.0	 0.0	 0.0	 0.0	 0.0	 0.0	 0.0	 0.0	 409.3667;
	10754	 323.1	 68.57	 157.2	 -20.06	 1.0417	 487.04	 1	 323.1	 323.1	 0.0	 0.0	 0.0	 0.0	 0.0	 0.0	 0.0	 0.0	 0.0	 0.0	 409.3667;
	10755	 333.93	 68.57	 157.2	 -20.06	 1.0413	 548.59	 1	 333.93	 333.93	 0.0	 0.0	 0.0	 0.0	 0.0	 0.0	 0.0	 0.0	 0.0	 0.0	 409.37;
	10757	 40.5	 6.785	 15.55	 -1.98	 1.0231	 45.68	 1	 40.5	 40.5	 0.0	 0.0	 0.0	 0.0	 0.0	 0.0	 0.0	 0.0	 0.0	 0.0	 40.5;
	10757	 40.5	 6.785	 15.55	 -1.98	 1.0231	 47.33	 1	 40.5	 40.5	 0.0	 0.0	 0.0	 0.0	 0.0	 0.0	 0.0	 0.0	 0.0	 0.0	 40.5;
	10757	 28.94	 6.785	 15.55	 -1.98	 1.0231	 57.72	 1	 28.94	 28.94	 0.0	 0.0	 0.0	 0.0	 0.0	 0.0	 0.0	 0.0	 0.0	 0.0	 40.5;
	10757	 25.04	 6.785	 15.55	 -1.98	 1.0231	 56.8	 0	 40.5	 9.58	 0.0	 0.0	 0.0	 0.0	 0.0	 0.0	 0.0	 0.0	 0.0	 0.0	 40.5;
	10758	 37.51	 9.315	 21.35	 -2.72	 1.04	 64.74	 0	 55.6	 19.42	 0.0	 0.0	 0.0	 0.0	 0.0	 0.0	 0.0	 0.0	 0.0	 0.0	 55.6;
	10758	 55.6	 9.315	 21.35	 -2.72	 1.04	 63.99	 1	 55.6	 55.6	 0.0	 0.0	 0.0	 0.0	 0.0	 0.0	 0.0	 0.0	 0.0	 0.0	 55.6;
	10760	 37.28	 0.0	 0.0	 0.0	 1.04	 69.12	 0	 61.5	 13.06	 0.0	 0.0	 0.0	 0.0	 0.0	 0.0	 0.0	 0.0	 0.0	 0.0	 61.5;
	10768	 212.51	 9.205	 56.83	 -38.42	 1.0304	 301.55	 1	 212.51	 212.51	 0.0	 0.0	 0.0	 0.0	 0.0	 0.0	 0.0	 0.0	 0.0	 0.0	 266.8;
	10771	 51.82	 8.68	 19.9	 -2.54	 1.0384	 72.35	 1	 51.82	 51.82	 0.0	 0.0	 0.0	 0.0	 0.0	 0.0	 0.0	 0.0	 0.0	 0.0	 51.825;
	10772	 41.62	 8.68	 19.9	 -2.54	 1.0394	 52.68	 1	 41.62	 41.62	 0.0	 0.0	 0.0	 0.0	 0.0	 0.0	 0.0	 0.0	 0.0	 0.0	 51.825;
	10773	 36.35	 8.68	 19.9	 -2.54	 1.0317	 66.71	 0	 51.82	 20.88	 0.0	 0.0	 0.0	 0.0	 0.0	 0.0	 0.0	 0.0	 0.0	 0.0	 51.83;
	10774	 41.38	 8.68	 19.9	 -2.54	 1.0373	 57.61	 1	 41.38	 41.38	 0.0	 0.0	 0.0	 0.0	 0.0	 0.0	 0.0	 0.0	 0.0	 0.0	 51.825;
	10776	 15.885	 0.0	 0.0	 0.0	 1.0318	 32.07	 0	 28.0	 3.77	 0.0	 0.0	 0.0	 0.0	 0.0	 0.0	 0.0	 0.0	 0.0	 0.0	 28.0;
	10776	 14.32	 0.0	 0.0	 0.0	 1.0318	 23.98	 1	 14.32	 14.32	 0.0	 0.0	 0.0	 0.0	 0.0	 0.0	 0.0	 0.0	 0.0	 0.0	 20.0;
	10778	 8.03	 1.675	 3.84	 -0.49	 1.0192	 11.56	 1	 8.03	 8.03	 0.0	 0.0	 0.0	 0.0	 0.0	 0.0	 0.0	 0.0	 0.0	 0.0	 10.0;
	10778	 14.8	 2.475	 5.68	 -0.73	 1.0192	 14.94	 1	 14.8	 14.8	 0.0	 0.0	 0.0	 0.0	 0.0	 0.0	 0.0	 0.0	 0.0	 0.0	 14.8;
	10782	 13.43	 0.0	 0.0	 0.0	 1.0162	 27.32	 1	 13.43	 13.43	 0.0	 0.0	 0.0	 0.0	 0.0	 0.0	 0.0	 0.0	 0.0	 0.0	 18.3333;
	10782	 14.65	 0.0	 0.0	 0.0	 1.0162	 18.63	 1	 14.65	 14.65	 0.0	 0.0	 0.0	 0.0	 0.0	 0.0	 0.0	 0.0	 0.0	 0.0	 18.3333;
	10783	 13.24	 0.0	 0.0	 0.0	 1.0155	 22.11	 1	 13.24	 13.24	 0.0	 0.0	 0.0	 0.0	 0.0	 0.0	 0.0	 0.0	 0.0	 0.0	 18.3333;
	10784	 17.21	 0.0	 0.0	 0.0	 1.0192	 43.83	 1	 17.21	 17.21	 0.0	 0.0	 0.0	 0.0	 0.0	 0.0	 0.0	 0.0	 0.0	 0.0	 39.4;
	10784	 42.83	 0.0	 0.0	 0.0	 1.0192	 64.64	 1	 42.83	 42.83	 0.0	 0.0	 0.0	 0.0	 0.0	 0.0	 0.0	 0.0	 0.0	 0.0	 58.2;
	10785	 39.4	 0.0	 0.0	 0.0	 1.0192	 44.46	 1	 39.4	 39.4	 0.0	 0.0	 0.0	 0.0	 0.0	 0.0	 0.0	 0.0	 0.0	 0.0	 39.4;
	10785	 31.08	 0.0	 0.0	 0.0	 1.0192	 49.64	 1	 31.08	 31.08	 0.0	 0.0	 0.0	 0.0	 0.0	 0.0	 0.0	 0.0	 0.0	 0.0	 39.4;
	10791	 58.2	 3.635	 22.43	 -15.16	 0.996	 136.19	 1	 58.2	 58.2	 0.0	 0.0	 0.0	 0.0	 0.0	 0.0	 0.0	 0.0	 0.0	 0.0	 105.3;
	10796	 24.56	 8.3	 21.23	 -4.63	 1.043	 55.57	 0	 41.7	 7.42	 0.0	 0.0	 0.0	 0.0	 0.0	 0.0	 0.0	 0.0	 0.0	 0.0	 41.7;
	10797	 25.265	 8.3	 21.23	 -4.63	 1.0445	 62.55	 1	 41.7	 8.83	 0.0	 0.0	 0.0	 0.0	 0.0	 0.0	 0.0	 0.0	 0.0	 0.0	 41.7;
	10797	 29.17	 8.3	 21.23	 -4.63	 1.0445	 41.7	 1	 41.7	 16.64	 0.0	 0.0	 0.0	 0.0	 0.0	 0.0	 0.0	 0.0	 0.0	 0.0	 41.7;
	10798	 27.755	 8.3	 21.23	 -4.63	 1.0269	 41.7	 1	 41.7	 13.81	 0.0	 0.0	 0.0	 0.0	 0.0	 0.0	 0.0	 0.0	 0.0	 0.0	 41.7;
	10800	 82.34	 3.375	 20.83	 -14.08	 1.04	 129.15	 1	 82.34	 82.34	 0.0	 0.0	 0.0	 0.0	 0.0	 0.0	 0.0	 0.0	 0.0	 0.0	 97.8;
	10802	 10.22	 2.01	 4.61	 -0.59	 1.0443	 14.15	 1	 10.22	 10.22	 0.0	 0.0	 0.0	 0.0	 0.0	 0.0	 0.0	 0.0	 0.0	 0.0	 12.0;
	10803	 12.0	 2.01	 4.61	 -0.59	 1.0444	 12.12	 1	 12.0	 12.0	 0.0	 0.0	 0.0	 0.0	 0.0	 0.0	 0.0	 0.0	 0.0	 0.0	 12.0;
	10806	 34.74	 7.64	 17.51	 -2.23	 1.0235	 52.42	 1	 34.74	 34.74	 0.0	 0.0	 0.0	 0.0	 0.0	 0.0	 0.0	 0.0	 0.0	 0.0	 45.6;
	10806	 42.97	 7.64	 17.51	 -2.23	 1.0235	 61.48	 1	 42.97	 42.97	 0.0	 0.0	 0.0	 0.0	 0.0	 0.0	 0.0	 0.0	 0.0	 0.0	 45.6;
	10807	 33.305	 7.64	 17.51	 -2.23	 1.0261	 68.4	 0	 45.6	 21.01	 0.0	 0.0	 0.0	 0.0	 0.0	 0.0	 0.0	 0.0	 0.0	 0.0	 45.6;
	10807	 30.26	 7.64	 17.51	 -2.23	 1.0261	 51.24	 1	 30.26	 30.26	 0.0	 0.0	 0.0	 0.0	 0.0	 0.0	 0.0	 0.0	 0.0	 0.0	 45.6;
	10811	 834.565	 171.6	 441.6	 -98.4	 1.0653	 1400.38	 1	 1200.0	 469.13	 0.0	 0.0	 0.0	 0.0	 0.0	 0.0	 0.0	 0.0	 0.0	 0.0	 1200.0;
	10813	 56.32	 11.225	 25.73	 -3.28	 1.0153	 74.5	 1	 56.32	 56.32	 0.0	 0.0	 0.0	 0.0	 0.0	 0.0	 0.0	 0.0	 0.0	 0.0	 67.0;
	10813	 48.685	 11.225	 25.73	 -3.28	 1.0153	 91.7	 0	 67.0	 30.37	 0.0	 0.0	 0.0	 0.0	 0.0	 0.0	 0.0	 0.0	 0.0	 0.0	 67.0;
	10817	 50.7	 0.0	 0.0	 0.0	 1.04	 68.96	 1	 50.7	 50.7	 0.0	 0.0	 0.0	 0.0	 0.0	 0.0	 0.0	 0.0	 0.0	 0.0	 50.7;
	10818	 4.765	 0.0	 0.0	 0.0	 1.04	 7.2	 0	 7.2	 2.33	 0.0	 0.0	 0.0	 0.0	 0.0	 0.0	 0.0	 0.0	 0.0	 0.0	 7.2;
	10821	 107.525	 5.22	 32.21	 -21.77	 1.0423	 208.02	 0	 151.2	 63.85	 0.0	 0.0	 0.0	 0.0	 0.0	 0.0	 0.0	 0.0	 0.0	 0.0	 151.2;
	10829	 75.24	 22.61	 51.84	 -6.62	 1.0232	 168.3	 1	 75.24	 75.24	 0.0	 0.0	 0.0	 0.0	 0.0	 0.0	 0.0	 0.0	 0.0	 0.0	 135.0;
	10830	 135.0	 22.61	 51.84	 -6.62	 1.0235	 159.7	 1	 135.0	 135.0	 0.0	 0.0	 0.0	 0.0	 0.0	 0.0	 0.0	 0.0	 0.0	 0.0	 135.0;
	10831	 106.15	 22.61	 51.84	 -6.62	 1.0233	 152.07	 1	 106.15	 106.15	 0.0	 0.0	 0.0	 0.0	 0.0	 0.0	 0.0	 0.0	 0.0	 0.0	 135.0;
	10832	 135.0	 22.61	 51.84	 -6.62	 1.0236	 143.54	 1	 135.0	 135.0	 0.0	 0.0	 0.0	 0.0	 0.0	 0.0	 0.0	 0.0	 0.0	 0.0	 135.0;
	10833	 88.14	 22.61	 51.84	 -6.62	 1.0234	 177.11	 1	 88.14	 88.14	 0.0	 0.0	 0.0	 0.0	 0.0	 0.0	 0.0	 0.0	 0.0	 0.0	 135.0;
	10834	 75.59	 22.61	 51.84	 -6.62	 1.0235	 175.15	 1	 75.59	 75.59	 0.0	 0.0	 0.0	 0.0	 0.0	 0.0	 0.0	 0.0	 0.0	 0.0	 135.0;
	10836	 54.735	 17.69	 45.25	 -9.87	 1.0221	 116.35	 1	 88.9	 20.57	 0.0	 0.0	 0.0	 0.0	 0.0	 0.0	 0.0	 0.0	 0.0	 0.0	 88.9;
	10836	 51.91	 17.69	 45.25	 -9.87	 1.0221	 90.43	 1	 88.9	 14.92	 0.0	 0.0	 0.0	 0.0	 0.0	 0.0	 0.0	 0.0	 0.0	 0.0	 88.9;
	10838	 45.58	 0.0	 0.0	 0.0	 1.04	 91.58	 1	 45.58	 45.58	 0.0	 0.0	 0.0	 0.0	 0.0	 0.0	 0.0	 0.0	 0.0	 0.0	 64.0;
	10842	 10.5	 2.145	 4.92	 -0.63	 1.038	 12.8	 1	 10.5	 10.5	 0.0	 0.0	 0.0	 0.0	 0.0	 0.0	 0.0	 0.0	 0.0	 0.0	 12.8;
	10842	 8.22	 2.145	 4.92	 -0.63	 1.038	 16.02	 1	 8.22	 8.22	 0.0	 0.0	 0.0	 0.0	 0.0	 0.0	 0.0	 0.0	 0.0	 0.0	 12.8;
	10843	 11.05	 2.145	 4.92	 -0.63	 1.0182	 13.06	 1	 11.05	 11.05	 0.0	 0.0	 0.0	 0.0	 0.0	 0.0	 0.0	 0.0	 0.0	 0.0	 12.8;
	10843	 8.18	 2.145	 4.92	 -0.63	 1.0182	 14.28	 0	 12.8	 3.56	 0.0	 0.0	 0.0	 0.0	 0.0	 0.0	 0.0	 0.0	 0.0	 0.0	 12.8;
	10843	 8.89	 2.145	 4.92	 -0.63	 1.0182	 12.8	 1	 8.89	 8.89	 0.0	 0.0	 0.0	 0.0	 0.0	 0.0	 0.0	 0.0	 0.0	 0.0	 12.8;
	10847	 100.5	 16.835	 38.59	 -4.92	 1.0367	 118.86	 1	 100.5	 100.5	 0.0	 0.0	 0.0	 0.0	 0.0	 0.0	 0.0	 0.0	 0.0	 0.0	 100.5;
	10848	 78.52	 16.835	 38.59	 -4.92	 1.0367	 140.04	 1	 78.52	 78.52	 0.0	 0.0	 0.0	 0.0	 0.0	 0.0	 0.0	 0.0	 0.0	 0.0	 100.5;
	10849	 83.39	 16.835	 38.59	 -4.92	 1.0367	 128.45	 1	 83.39	 83.39	 0.0	 0.0	 0.0	 0.0	 0.0	 0.0	 0.0	 0.0	 0.0	 0.0	 100.5;
	10850	 87.3	 16.835	 38.59	 -4.92	 1.0365	 120.81	 1	 87.3	 87.3	 0.0	 0.0	 0.0	 0.0	 0.0	 0.0	 0.0	 0.0	 0.0	 0.0	 100.5;
	10851	 80.36	 16.835	 38.59	 -4.92	 1.0368	 108.12	 1	 80.36	 80.36	 0.0	 0.0	 0.0	 0.0	 0.0	 0.0	 0.0	 0.0	 0.0	 0.0	 100.5;
	10852	 99.06	 16.835	 38.59	 -4.92	 1.0368	 100.5	 1	 99.06	 99.06	 0.0	 0.0	 0.0	 0.0	 0.0	 0.0	 0.0	 0.0	 0.0	 0.0	 100.5;
	10853	 6.715	 1.675	 3.84	 -0.49	 1.0372	 13.29	 0	 10.0	 3.43	 0.0	 0.0	 0.0	 0.0	 0.0	 0.0	 0.0	 0.0	 0.0	 0.0	 10.0;
	10859	 543.575	 125.54	 340.13	 -89.05	 1.0395	 844.8	 0	 729.9	 357.25	 0.0	 0.0	 0.0	 0.0	 0.0	 0.0	 0.0	 0.0	 0.0	 0.0	 729.9;
	10860	 521.045	 125.54	 340.13	 -89.05	 1.0341	 887.05	 1	 729.9	 312.19	 0.0	 0.0	 0.0	 0.0	 0.0	 0.0	 0.0	 0.0	 0.0	 0.0	 729.9;
	10864	 103.61	 25.125	 57.6	 -7.35	 1.0058	 187.87	 1	 103.61	 103.61	 0.0	 0.0	 0.0	 0.0	 0.0	 0.0	 0.0	 0.0	 0.0	 0.0	 150.0;
	10865	 110.96	 25.125	 57.6	 -7.35	 1.0062	 209.0	 1	 110.96	 110.96	 0.0	 0.0	 0.0	 0.0	 0.0	 0.0	 0.0	 0.0	 0.0	 0.0	 150.0;
	10867	 11.12	 2.51	 5.76	 -0.74	 0.9782	 15.21	 1	 11.12	 11.12	 0.0	 0.0	 0.0	 0.0	 0.0	 0.0	 0.0	 0.0	 0.0	 0.0	 15.0;
	10867	 11.39	 2.51	 5.76	 -0.74	 0.9782	 20.37	 1	 11.39	 11.39	 0.0	 0.0	 0.0	 0.0	 0.0	 0.0	 0.0	 0.0	 0.0	 0.0	 15.0;
	10869	 6.555	 1.675	 3.84	 -0.49	 1.0067	 10.0	 0	 10.0	 3.11	 0.0	 0.0	 0.0	 0.0	 0.0	 0.0	 0.0	 0.0	 0.0	 0.0	 10.0;
	10869	 10.0	 1.675	 3.84	 -0.49	 1.0067	 11.12	 1	 10.0	 10.0	 0.0	 0.0	 0.0	 0.0	 0.0	 0.0	 0.0	 0.0	 0.0	 0.0	 10.0;
	10872	 44.945	 12.3	 31.46	 -6.86	 1.0229	 90.38	 1	 61.8	 28.09	 0.0	 0.0	 0.0	 0.0	 0.0	 0.0	 0.0	 0.0	 0.0	 0.0	 61.8;
	10873	 21.91	 4.96	 11.37	 -1.45	 1.0192	 33.07	 1	 21.91	 21.91	 0.0	 0.0	 0.0	 0.0	 0.0	 0.0	 0.0	 0.0	 0.0	 0.0	 29.6;
	10873	 17.095	 4.96	 11.37	 -1.45	 1.0192	 38.51	 0	 29.6	 4.59	 0.0	 0.0	 0.0	 0.0	 0.0	 0.0	 0.0	 0.0	 0.0	 0.0	 29.6;
	10879	 70.43	 22.61	 51.84	 -6.62	 1.0364	 149.8	 1	 70.43	 70.43	 0.0	 0.0	 0.0	 0.0	 0.0	 0.0	 0.0	 0.0	 0.0	 0.0	 135.0;
	10880	 109.22	 22.61	 51.84	 -6.62	 1.0366	 177.0	 1	 109.22	 109.22	 0.0	 0.0	 0.0	 0.0	 0.0	 0.0	 0.0	 0.0	 0.0	 0.0	 135.0;
	10881	 73.16	 22.61	 51.84	 -6.62	 1.0364	 178.0	 1	 73.16	 73.16	 0.0	 0.0	 0.0	 0.0	 0.0	 0.0	 0.0	 0.0	 0.0	 0.0	 135.0;
	10882	 80.925	 22.61	 51.84	 -6.62	 1.0369	 183.66	 0	 135.0	 26.85	 0.0	 0.0	 0.0	 0.0	 0.0	 0.0	 0.0	 0.0	 0.0	 0.0	 135.0;
	10883	 96.27	 22.61	 51.84	 -6.62	 1.0369	 146.95	 0	 135.0	 57.54	 0.0	 0.0	 0.0	 0.0	 0.0	 0.0	 0.0	 0.0	 0.0	 0.0	 135.0;
	10884	 118.13	 22.61	 51.84	 -6.62	 1.0364	 153.95	 1	 118.13	 118.13	 0.0	 0.0	 0.0	 0.0	 0.0	 0.0	 0.0	 0.0	 0.0	 0.0	 135.0;
	10889	 65.715	 17.47	 44.69	 -9.75	 1.0386	 110.05	 1	 87.8	 43.63	 0.0	 0.0	 0.0	 0.0	 0.0	 0.0	 0.0	 0.0	 0.0	 0.0	 87.8;
	10890	 26.4	 7.505	 19.19	 -4.18	 1.0327	 38.42	 0	 37.7	 15.1	 0.0	 0.0	 0.0	 0.0	 0.0	 0.0	 0.0	 0.0	 0.0	 0.0	 37.7;
	10895	 66.475	 18.71	 47.85	 -10.43	 1.0246	 115.42	 1	 94.0	 38.95	 0.0	 0.0	 0.0	 0.0	 0.0	 0.0	 0.0	 0.0	 0.0	 0.0	 94.0;
	10896	 52.805	 18.71	 47.85	 -10.43	 1.0245	 108.98	 1	 94.0	 11.61	 0.0	 0.0	 0.0	 0.0	 0.0	 0.0	 0.0	 0.0	 0.0	 0.0	 94.0;
	10897	 61.335	 18.71	 47.85	 -10.43	 1.0249	 118.83	 1	 94.0	 28.67	 0.0	 0.0	 0.0	 0.0	 0.0	 0.0	 0.0	 0.0	 0.0	 0.0	 94.0;
	10898	 66.86	 18.71	 47.85	 -10.43	 1.0248	 138.07	 1	 94.0	 39.72	 0.0	 0.0	 0.0	 0.0	 0.0	 0.0	 0.0	 0.0	 0.0	 0.0	 94.0;
	10901	 36.21	 7.705	 17.66	 -2.25	 1.038	 61.88	 1	 36.21	 36.21	 0.0	 0.0	 0.0	 0.0	 0.0	 0.0	 0.0	 0.0	 0.0	 0.0	 46.0;
	10902	 28.065	 7.705	 17.66	 -2.25	 1.0396	 46.65	 0	 46.0	 10.13	 0.0	 0.0	 0.0	 0.0	 0.0	 0.0	 0.0	 0.0	 0.0	 0.0	 46.0;
	10904	 37.13	 1.725	 10.65	 -7.2	 1.0489	 64.29	 1	 37.13	 37.13	 0.0	 0.0	 0.0	 0.0	 0.0	 0.0	 0.0	 0.0	 0.0	 0.0	 50.0;
	10908	 115.41	 28.62	 65.61	 -8.37	 1.0367	 202.81	 1	 115.41	 115.41	 0.0	 0.0	 0.0	 0.0	 0.0	 0.0	 0.0	 0.0	 0.0	 0.0	 170.8667;
	10909	 104.05	 28.62	 65.61	 -8.37	 1.0438	 171.05	 0	 170.87	 37.23	 0.0	 0.0	 0.0	 0.0	 0.0	 0.0	 0.0	 0.0	 0.0	 0.0	 170.8667;
	10910	 99.62	 28.62	 65.61	 -8.37	 1.0305	 185.54	 1	 99.62	 99.62	 0.0	 0.0	 0.0	 0.0	 0.0	 0.0	 0.0	 0.0	 0.0	 0.0	 170.8667;
	10911	 111.375	 28.62	 65.61	 -8.37	 1.0438	 205.0	 0	 170.87	 51.88	 0.0	 0.0	 0.0	 0.0	 0.0	 0.0	 0.0	 0.0	 0.0	 0.0	 170.8667;
	10912	 116.3	 28.62	 65.61	 -8.37	 1.0304	 246.02	 1	 116.3	 116.3	 0.0	 0.0	 0.0	 0.0	 0.0	 0.0	 0.0	 0.0	 0.0	 0.0	 170.87;
	10913	 94.215	 28.62	 65.61	 -8.37	 1.0438	 188.36	 0	 170.87	 17.56	 0.0	 0.0	 0.0	 0.0	 0.0	 0.0	 0.0	 0.0	 0.0	 0.0	 170.8667;
	10914	 7.23	 1.575	 3.61	 -0.46	 1.0308	 9.4	 1	 7.23	 7.23	 0.0	 0.0	 0.0	 0.0	 0.0	 0.0	 0.0	 0.0	 0.0	 0.0	 9.4;
	10919	 112.5	 18.845	 43.2	 -5.51	 1.032	 148.42	 1	 112.5	 112.5	 0.0	 0.0	 0.0	 0.0	 0.0	 0.0	 0.0	 0.0	 0.0	 0.0	 112.5;
	10920	 80.83	 18.845	 43.2	 -5.51	 1.0263	 112.95	 0	 112.5	 49.16	 0.0	 0.0	 0.0	 0.0	 0.0	 0.0	 0.0	 0.0	 0.0	 0.0	 112.5;
	10921	 93.79	 18.845	 43.2	 -5.51	 1.0323	 131.63	 1	 93.79	 93.79	 0.0	 0.0	 0.0	 0.0	 0.0	 0.0	 0.0	 0.0	 0.0	 0.0	 112.5;
	10922	 77.5	 18.845	 43.2	 -5.51	 1.0263	 153.59	 0	 112.5	 42.5	 0.0	 0.0	 0.0	 0.0	 0.0	 0.0	 0.0	 0.0	 0.0	 0.0	 112.5;
	10923	 52.245	 16.835	 43.06	 -9.39	 1.044	 107.98	 1	 84.6	 19.89	 0.0	 0.0	 0.0	 0.0	 0.0	 0.0	 0.0	 0.0	 0.0	 0.0	 84.6;
	10923	 59.8	 16.835	 43.06	 -9.39	 1.044	 85.56	 1	 84.6	 35.0	 0.0	 0.0	 0.0	 0.0	 0.0	 0.0	 0.0	 0.0	 0.0	 0.0	 84.6;
	10925	 16.8	 2.815	 6.45	 -0.82	 1.0245	 16.87	 1	 16.8	 16.8	 0.0	 0.0	 0.0	 0.0	 0.0	 0.0	 0.0	 0.0	 0.0	 0.0	 16.8;
	10925	 6.52	 1.255	 2.88	 -0.37	 1.0245	 8.37	 1	 6.52	 6.52	 0.0	 0.0	 0.0	 0.0	 0.0	 0.0	 0.0	 0.0	 0.0	 0.0	 7.5;
	10930	 158.415	 46.3	 118.43	 -25.83	 1.062	 310.59	 1	 232.67	 84.16	 0.0	 0.0	 0.0	 0.0	 0.0	 0.0	 0.0	 0.0	 0.0	 0.0	 232.6667;
	10931	 135.32	 46.3	 118.43	 -25.83	 1.0518	 290.05	 1	 232.67	 37.97	 0.0	 0.0	 0.0	 0.0	 0.0	 0.0	 0.0	 0.0	 0.0	 0.0	 232.6667;
	10932	 161.72	 46.3	 118.43	 -25.83	 1.059	 261.17	 1	 232.67	 90.77	 0.0	 0.0	 0.0	 0.0	 0.0	 0.0	 0.0	 0.0	 0.0	 0.0	 232.6667;
	10933	 50.0	 1.725	 10.65	 -7.2	 1.0192	 50.0	 1	 50.0	 50.0	 0.0	 0.0	 0.0	 0.0	 0.0	 0.0	 0.0	 0.0	 0.0	 0.0	 50.0;
	10934	 36.0	 6.03	 13.82	 -1.76	 1.0172	 39.66	 1	 36.0	 36.0	 0.0	 0.0	 0.0	 0.0	 0.0	 0.0	 0.0	 0.0	 0.0	 0.0	 36.0;
	10934	 36.0	 6.03	 13.82	 -1.76	 1.0172	 53.42	 1	 36.0	 36.0	 0.0	 0.0	 0.0	 0.0	 0.0	 0.0	 0.0	 0.0	 0.0	 0.0	 36.0;
	10938	 14.84	 0.0	 0.0	 0.0	 1.0374	 20.22	 1	 14.84	 14.84	 0.0	 0.0	 0.0	 0.0	 0.0	 0.0	 0.0	 0.0	 0.0	 0.0	 18.0;
	10939	 7.5	 0.0	 0.0	 0.0	 1.0362	 8.1	 1	 7.5	 7.5	 0.0	 0.0	 0.0	 0.0	 0.0	 0.0	 0.0	 0.0	 0.0	 0.0	 7.5;
	10940	 7.5	 0.0	 0.0	 0.0	 1.035	 8.27	 1	 7.5	 7.5	 0.0	 0.0	 0.0	 0.0	 0.0	 0.0	 0.0	 0.0	 0.0	 0.0	 7.5;
	10944	 123.26	 22.61	 51.84	 -6.62	 1.0381	 147.93	 1	 123.26	 123.26	 0.0	 0.0	 0.0	 0.0	 0.0	 0.0	 0.0	 0.0	 0.0	 0.0	 135.0;
	10945	 118.78	 22.61	 51.84	 -6.62	 1.038	 194.09	 1	 118.78	 118.78	 0.0	 0.0	 0.0	 0.0	 0.0	 0.0	 0.0	 0.0	 0.0	 0.0	 135.0;
	10946	 135.0	 22.61	 51.84	 -6.62	 1.0383	 154.67	 1	 135.0	 135.0	 0.0	 0.0	 0.0	 0.0	 0.0	 0.0	 0.0	 0.0	 0.0	 0.0	 135.0;
	10947	 109.12	 22.61	 51.84	 -6.62	 1.0382	 200.23	 1	 109.12	 109.12	 0.0	 0.0	 0.0	 0.0	 0.0	 0.0	 0.0	 0.0	 0.0	 0.0	 135.0;
	10948	 89.95	 22.61	 51.84	 -6.62	 1.0387	 185.19	 0	 135.0	 44.9	 0.0	 0.0	 0.0	 0.0	 0.0	 0.0	 0.0	 0.0	 0.0	 0.0	 135.0;
	10949	 90.42	 22.61	 51.84	 -6.62	 1.0382	 172.19	 1	 90.42	 90.42	 0.0	 0.0	 0.0	 0.0	 0.0	 0.0	 0.0	 0.0	 0.0	 0.0	 135.0;
	10951	 12.05	 3.24	 7.43	 -0.95	 1.0312	 19.99	 0	 19.35	 4.75	 0.0	 0.0	 0.0	 0.0	 0.0	 0.0	 0.0	 0.0	 0.0	 0.0	 19.35;
	10951	 13.865	 3.24	 7.43	 -0.95	 1.0312	 21.18	 0	 19.35	 8.38	 0.0	 0.0	 0.0	 0.0	 0.0	 0.0	 0.0	 0.0	 0.0	 0.0	 19.35;
	10955	 32.11	 5.695	 13.06	 -1.67	 1.0203	 34.02	 1	 32.11	 32.11	 0.0	 0.0	 0.0	 0.0	 0.0	 0.0	 0.0	 0.0	 0.0	 0.0	 34.0;
	10955	 17.04	 5.695	 13.06	 -1.67	 1.0203	 41.9	 1	 17.04	 17.04	 0.0	 0.0	 0.0	 0.0	 0.0	 0.0	 0.0	 0.0	 0.0	 0.0	 34.0;
	10956	 19.355	 5.695	 13.06	 -1.67	 1.0209	 44.38	 0	 34.0	 4.71	 0.0	 0.0	 0.0	 0.0	 0.0	 0.0	 0.0	 0.0	 0.0	 0.0	 34.0;
	10956	 25.415	 5.695	 13.06	 -1.67	 1.0209	 45.23	 0	 34.0	 16.83	 0.0	 0.0	 0.0	 0.0	 0.0	 0.0	 0.0	 0.0	 0.0	 0.0	 34.0;
	10959	 221.29	 9.045	 55.85	 -37.76	 1.0088	 336.76	 1	 221.29	 221.29	 0.0	 0.0	 0.0	 0.0	 0.0	 0.0	 0.0	 0.0	 0.0	 0.0	 262.2;
	10965	 245.83	 11.825	 73.0	 -49.35	 1.0351	 382.51	 0	 342.7	 148.96	 0.0	 0.0	 0.0	 0.0	 0.0	 0.0	 0.0	 0.0	 0.0	 0.0	 342.7;
	10966	 4.875	 1.155	 2.65	 -0.34	 1.0221	 6.96	 0	 6.9	 2.85	 0.0	 0.0	 0.0	 0.0	 0.0	 0.0	 0.0	 0.0	 0.0	 0.0	 6.9;
	10966	 5.28	 1.155	 2.65	 -0.34	 1.0221	 9.31	 1	 5.28	 5.28	 0.0	 0.0	 0.0	 0.0	 0.0	 0.0	 0.0	 0.0	 0.0	 0.0	 6.9;
	10966	 20.12	 4.605	 10.56	 -1.35	 1.0221	 36.0	 1	 20.12	 20.12	 0.0	 0.0	 0.0	 0.0	 0.0	 0.0	 0.0	 0.0	 0.0	 0.0	 27.5;
	10969	 18.465	 5.17	 13.23	 -2.89	 1.0284	 32.28	 0	 26.0	 10.93	 0.0	 0.0	 0.0	 0.0	 0.0	 0.0	 0.0	 0.0	 0.0	 0.0	 26.0;
	10972	 13.16	 2.93	 6.72	 -0.86	 1.0105	 18.98	 1	 13.16	 13.16	 0.0	 0.0	 0.0	 0.0	 0.0	 0.0	 0.0	 0.0	 0.0	 0.0	 17.5;
	10972	 17.5	 2.93	 6.72	 -0.86	 1.0105	 21.37	 1	 17.5	 17.5	 0.0	 0.0	 0.0	 0.0	 0.0	 0.0	 0.0	 0.0	 0.0	 0.0	 17.5;
	10973	 12.96	 2.93	 6.72	 -0.86	 1.0123	 21.11	 0	 17.5	 8.42	 0.0	 0.0	 0.0	 0.0	 0.0	 0.0	 0.0	 0.0	 0.0	 0.0	 17.5;
	10973	 17.5	 2.93	 6.72	 -0.86	 1.0123	 19.51	 1	 17.5	 17.5	 0.0	 0.0	 0.0	 0.0	 0.0	 0.0	 0.0	 0.0	 0.0	 0.0	 17.5;
	10978	 95.9	 3.31	 20.43	 -13.81	 1.0423	 103.8	 1	 95.9	 95.9	 0.0	 0.0	 0.0	 0.0	 0.0	 0.0	 0.0	 0.0	 0.0	 0.0	 95.9;
	10981	 97.59	 4.7	 29.03	 -19.63	 1.0485	 168.9	 1	 97.59	 97.59	 0.0	 0.0	 0.0	 0.0	 0.0	 0.0	 0.0	 0.0	 0.0	 0.0	 136.3;
	10982	 92.02	 4.7	 29.03	 -19.63	 1.0469	 154.45	 1	 92.02	 92.02	 0.0	 0.0	 0.0	 0.0	 0.0	 0.0	 0.0	 0.0	 0.0	 0.0	 136.3;
	10985	 199.0	 6.865	 42.39	 -28.66	 1.038	 199.13	 1	 199.0	 199.0	 0.0	 0.0	 0.0	 0.0	 0.0	 0.0	 0.0	 0.0	 0.0	 0.0	 199.0;
	10989	 140.28	 43.115	 110.28	 -24.05	 1.0371	 295.91	 1	 216.67	 63.89	 0.0	 0.0	 0.0	 0.0	 0.0	 0.0	 0.0	 0.0	 0.0	 0.0	 216.67;
	10990	 136.815	 43.115	 110.28	 -24.05	 1.0373	 242.35	 1	 216.67	 56.96	 0.0	 0.0	 0.0	 0.0	 0.0	 0.0	 0.0	 0.0	 0.0	 0.0	 216.6667;
	10991	 119.68	 43.115	 110.28	 -24.05	 1.0377	 322.3	 1	 216.67	 22.69	 0.0	 0.0	 0.0	 0.0	 0.0	 0.0	 0.0	 0.0	 0.0	 0.0	 216.67;
	10993	 15.145	 3.455	 7.92	 -1.01	 1.0435	 24.82	 0	 20.62	 9.67	 0.0	 0.0	 0.0	 0.0	 0.0	 0.0	 0.0	 0.0	 0.0	 0.0	 20.625;
	10993	 14.155	 3.455	 7.92	 -1.01	 1.0435	 21.05	 0	 20.62	 7.69	 0.0	 0.0	 0.0	 0.0	 0.0	 0.0	 0.0	 0.0	 0.0	 0.0	 20.63;
	10994	 12.39	 3.455	 7.92	 -1.01	 1.0435	 30.93	 0	 20.62	 4.16	 0.0	 0.0	 0.0	 0.0	 0.0	 0.0	 0.0	 0.0	 0.0	 0.0	 20.63;
	10995	 20.62	 3.455	 7.92	 -1.01	 1.0416	 25.07	 1	 20.62	 20.62	 0.0	 0.0	 0.0	 0.0	 0.0	 0.0	 0.0	 0.0	 0.0	 0.0	 20.625;
	10998	 16.51	 4.19	 9.6	 -1.22	 1.0258	 34.25	 1	 16.51	 16.51	 0.0	 0.0	 0.0	 0.0	 0.0	 0.0	 0.0	 0.0	 0.0	 0.0	 25.0;
	10998	 25.0	 4.19	 9.6	 -1.22	 1.0258	 28.91	 1	 25.0	 25.0	 0.0	 0.0	 0.0	 0.0	 0.0	 0.0	 0.0	 0.0	 0.0	 0.0	 25.0;
	11005	 93.475	 28.285	 72.35	 -15.78	 1.0257	 171.01	 1	 142.15	 44.8	 0.0	 0.0	 0.0	 0.0	 0.0	 0.0	 0.0	 0.0	 0.0	 0.0	 142.15;
	11006	 79.055	 28.285	 72.35	 -15.78	 1.0271	 185.88	 1	 142.15	 15.96	 0.0	 0.0	 0.0	 0.0	 0.0	 0.0	 0.0	 0.0	 0.0	 0.0	 142.15;
	11008	 21.6	 3.615	 8.29	 -1.06	 0.9755	 27.1	 1	 21.6	 21.6	 0.0	 0.0	 0.0	 0.0	 0.0	 0.0	 0.0	 0.0	 0.0	 0.0	 21.6;
	11009	 16.3	 3.615	 8.29	 -1.06	 0.997	 22.46	 1	 16.3	 16.3	 0.0	 0.0	 0.0	 0.0	 0.0	 0.0	 0.0	 0.0	 0.0	 0.0	 21.6;
	11009	 5.97	 2.145	 4.92	 -0.63	 0.997	 19.2	 1	 5.97	 5.97	 0.0	 0.0	 0.0	 0.0	 0.0	 0.0	 0.0	 0.0	 0.0	 0.0	 12.8;
	11014	 812.69	 181.32	 415.68	 -53.04	 1.0694	 1169.43	 1	 812.69	 812.69	 0.0	 0.0	 0.0	 0.0	 0.0	 0.0	 0.0	 0.0	 0.0	 0.0	 1082.5;
	11015	 680.16	 181.32	 415.68	 -53.04	 1.041	 1277.21	 0	 1082.5	 277.82	 0.0	 0.0	 0.0	 0.0	 0.0	 0.0	 0.0	 0.0	 0.0	 0.0	 1082.5;
	11016	 1082.5	 181.32	 415.68	 -53.04	 1.0633	 1357.65	 1	 1082.5	 1082.5	 0.0	 0.0	 0.0	 0.0	 0.0	 0.0	 0.0	 0.0	 0.0	 0.0	 1082.5;
...
];

%% generator cost data
%	2	startup	shutdown	n	c(n-1)	...	c0
mpc.gencost = [
	2	 0.0	 0.0	 3	   0.000000	   0.000000	   0.000000;
	2	 0.0	 0.0	 3	   0.000000	   0.000000	   0.000000;
	2	 0.0	 0.0	 3	   0.000000	   0.000000	   0.000000;
	2	 0.0	 0.0	 3	   0.000000	   0.000000	   0.000000;
	2	 0.0	 0.0	 3	   0.000000	   0.000000	   0.000000;
	2	 0.0	 0.0	 3	   0.000000	   0.000000	   0.000000;
	2	 0.0	 0.0	 3	   0.000000	   0.000000	   0.000000;
	2	 0.0	 0.0	 3	   0.000000	   0.000000	   0.000000;
	2	 0.0	 0.0	 3	   0.000000	   0.000000	   0.000000;
	2	 0.0	 0.0	 3	   0.000000	   0.000000	   0.000000;
	2	 0.0	 0.0	 3	   0.000000	   0.000000	   0.000000;
	2	 0.0	 0.0	 3	   0.000000	   0.000000	   0.000000;
	2	 0.0	 0.0	 3	   0.000000	   0.000000	   0.000000;
	2	 0.0	 0.0	 3	   0.000000	   0.000000	   0.000000;
	2	 0.0	 0.0	 3	   0.000000	   0.000000	   0.000000;
	2	 0.0	 0.0	 3	   0.000000	   0.000000	   0.000000;
	2	 0.0	 0.0	 3	   0.000000	   0.000000	   0.000000;
	2	 0.0	 0.0	 3	   0.000000	   0.000000	   0.000000;
	2	 0.0	 0.0	 3	   0.000000	   0.000000	   0.000000;
	2	 0.0	 0.0	 3	   0.000000	   0.000000	   0.000000;
	2	 0.0	 0.0	 3	   0.000000	   0.000000	   0.000000;
	2	 0.0	 0.0	 3	   0.000000	   0.000000	   0.000000;
	2	 0.0	 0.0	 3	   0.000000	   0.000000	   0.000000;
	2	 0.0	 0.0	 3	   0.000000	   0.000000	   0.000000;
	2	 0.0	 0.0	 3	   0.000000	   0.000000	   0.000000;
	2	 0.0	 0.0	 3	   0.000000	   0.000000	   0.000000;
	2	 0.0	 0.0	 3	   0.000000	   0.000000	   0.000000;
	2	 0.0	 0.0	 3	   0.000000	   0.000000	   0.000000;
	2	 0.0	 0.0	 3	   0.000000	   0.000000	   0.000000;
	2	 0.0	 0.0	 3	   0.000000	   0.000000	   0.000000;
	2	 0.0	 0.0	 3	   0.000000	   0.000000	   0.000000;
	2	 0.0	 0.0	 3	   0.000000	   0.000000	   0.000000;
	2	 0.0	 0.0	 3	   0.000000	   0.000000	   0.000000;
	2	 0.0	 0.0	 3	   0.001000	  13.233000	 838.720000;
	2	 0.0	 0.0	 3	   0.001000	  17.183000	 838.720000;
	2	 0.0	 0.0	 3	   0.000000	   0.000000	   0.000000;
	2	 0.0	 0.0	 3	   0.000000	   0.000000	   0.000000;
	2	 0.0	 0.0	 3	   0.000000	   0.000000	   0.000000;
	2	 0.0	 0.0	 3	   0.000000	   0.000000	   0.000000;
	2	 0.0	 0.0	 3	   0.000000	   0.000000	   0.000000;
	2	 0.0	 0.0	 3	   0.000000	   0.000000	   0.000000;
	2	 0.0	 0.0	 3	   0.000000	   0.000000	   0.000000;
	2	 0.0	 0.0	 3	   0.000000	   0.000000	   0.000000;
	2	 0.0	 0.0	 3	   0.000000	   0.000000	   0.000000;
	2	 0.0	 0.0	 3	   0.000000	   0.000000	   0.000000;
	2	 0.0	 0.0	 3	   0.000000	   0.000000	   0.000000;
	2	 0.0	 0.0	 3	   0.000000	   0.000000	   0.000000;
	2	 0.0	 0.0	 3	   0.000000	   0.000000	   0.000000;
	2	 0.0	 0.0	 3	   0.000000	   0.000000	   0.000000;
	2	 0.0	 0.0	 3	   0.000000	   0.000000	   0.000000;
	2	 0.0	 0.0	 3	   0.000000	   0.000000	   0.000000;
	2	 0.0	 0.0	 3	   0.000000	   0.000000	   0.000000;
	2	 0.0	 0.0	 3	   0.000000	   0.000000	   0.000000;
	2	 0.0	 0.0	 3	   0.000000	   0.000000	   0.000000;
	2	 0.0	 0.0	 3	   0.000000	   0.000000	   0.000000;
	2	 0.0	 0.0	 3	   0.000000	   0.000000	   0.000000;
	2	 0.0	 0.0	 3	   0.000000	   0.000000	   0.000000;
	2	 0.0	 0.0	 3	   0.000000	   0.000000	   0.000000;
	2	 0.0	 0.0	 3	   0.000000	   0.000000	   0.000000;
	2	 0.0	 0.0	 3	   0.000000	   0.000000	   0.000000;
	2	 0.0	 0.0	 3	   0.000000	   0.000000	   0.000000;
	2	 0.0	 0.0	 3	   0.000000	   0.000000	   0.000000;
	2	 0.0	 0.0	 3	   0.000000	   0.000000	   0.000000;
	2	 0.0	 0.0	 3	   0.000000	   0.000000	   0.000000;
	2	 0.0	 0.0	 3	   0.000000	   0.000000	   0.000000;
	2	 0.0	 0.0	 3	   0.000000	   0.000000	   0.000000;
	2	 0.0	 0.0	 3	   0.000000	   0.000000	   0.000000;
	2	 0.0	 0.0	 3	   0.000000	   0.000000	   0.000000;
	2	 0.0	 0.0	 3	   0.000000	   0.000000	   0.000000;
	2	 0.0	 0.0	 3	   0.001000	  15.617000	 662.550000;
	2	 0.0	 0.0	 3	   0.001000	  16.261000	 662.550000;
	2	 0.0	 0.0	 3	   0.001000	  15.711000	 662.550000;
	2	 0.0	 0.0	 3	   0.001000	  15.154000	 662.550000;
	2	 0.0	 0.0	 3	   0.000000	   0.000000	   0.000000;
	2	 0.0	 0.0	 3	   0.000000	   0.000000	   0.000000;
	2	 0.0	 0.0	 3	   0.000000	   0.000000	   0.000000;
	2	 0.0	 0.0	 3	   0.000000	   0.000000	   0.000000;
	2	 0.0	 0.0	 3	   0.000000	   0.000000	   0.000000;
	2	 0.0	 0.0	 3	   0.000000	   0.000000	   0.000000;
	2	 0.0	 0.0	 3	   0.000000	   0.000000	   0.000000;
	2	 0.0	 0.0	 3	   0.000000	   8.000000	 1000.000000;
	2	 0.0	 0.0	 3	   0.000000	   0.000000	   0.000000;
	2	 0.0	 0.0	 3	   0.000000	   0.000000	   0.000000;
	2	 0.0	 0.0	 3	   0.000000	   0.000000	   0.000000;
	2	 0.0	 0.0	 3	   0.000000	   0.000000	   0.000000;
	2	 0.0	 0.0	 3	   0.000000	   0.000000	   0.000000;
	2	 0.0	 0.0	 3	   0.000000	   0.000000	   0.000000;
	2	 0.0	 0.0	 3	   0.000000	   0.000000	   0.000000;
	2	 0.0	 0.0	 3	   0.000000	   0.000000	   0.000000;
	2	 0.0	 0.0	 3	   0.000000	   0.000000	   0.000000;
	2	 0.0	 0.0	 3	   0.000000	   0.000000	   0.000000;
	2	 0.0	 0.0	 3	   0.000000	   0.000000	   0.000000;
	2	 0.0	 0.0	 3	   0.001000	  14.734000	 733.350000;
	2	 0.0	 0.0	 3	   0.001000	  14.977000	 733.350000;
	2	 0.0	 0.0	 3	   0.000000	   0.000000	   0.000000;
	2	 0.0	 0.0	 3	   0.000000	   0.000000	   0.000000;
	2	 0.0	 0.0	 3	   0.000000	   0.000000	   0.000000;
	2	 0.0	 0.0	 3	   0.000000	   0.000000	   0.000000;
	2	 0.0	 0.0	 3	   0.000000	   0.000000	   0.000000;
	2	 0.0	 0.0	 3	   0.000000	   0.000000	   0.000000;
	2	 0.0	 0.0	 3	   0.000000	   0.000000	   0.000000;
	2	 0.0	 0.0	 3	   0.000000	   0.000000	   0.000000;
	2	 0.0	 0.0	 3	   0.000000	   0.000000	   0.000000;
	2	 0.0	 0.0	 3	   0.000000	   0.000000	   0.000000;
	2	 0.0	 0.0	 3	   0.000000	   0.000000	   0.000000;
	2	 0.0	 0.0	 3	   0.000000	   0.000000	   0.000000;
	2	 0.0	 0.0	 3	   0.000000	   0.000000	   0.000000;
	2	 0.0	 0.0	 3	   0.002000	  21.550000	 1403.470000;
	2	 0.0	 0.0	 3	   0.002000	  20.062000	 1403.470000;
	2	 0.0	 0.0	 3	   0.000000	   0.000000	   0.000000;
	2	 0.0	 0.0	 3	   0.000000	   0.000000	   0.000000;
	2	 0.0	 0.0	 3	   0.000000	   0.000000	   0.000000;
	2	 0.0	 0.0	 3	   0.000000	   0.000000	   0.000000;
	2	 0.0	 0.0	 3	   0.000000	   0.000000	   0.000000;
	2	 0.0	 0.0	 3	   0.000000	   0.000000	   0.000000;
	2	 0.0	 0.0	 3	   0.001000	  15.396000	 692.700000;
	2	 0.0	 0.0	 3	   0.000000	   0.000000	   0.000000;
	2	 0.0	 0.0	 3	   0.000000	   0.000000	   0.000000;
	2	 0.0	 0.0	 3	   0.000000	   0.000000	   0.000000;
	2	 0.0	 0.0	 3	   0.000000	   0.000000	   0.000000;
	2	 0.0	 0.0	 3	   0.000000	   0.000000	   0.000000;
	2	 0.0	 0.0	 3	   0.000000	   0.000000	   0.000000;
	2	 0.0	 0.0	 3	   0.000000	   0.000000	   0.000000;
	2	 0.0	 0.0	 3	   0.000000	   0.000000	   0.000000;
	2	 0.0	 0.0	 3	   0.001000	  14.226000	 731.700000;
	2	 0.0	 0.0	 3	   0.001000	  15.513000	 656.550000;
	2	 0.0	 0.0	 3	   0.001000	  15.163000	 741.000000;
	2	 0.0	 0.0	 3	   0.001000	  14.937000	 741.000000;
	2	 0.0	 0.0	 3	   0.001000	  15.249000	 741.000000;
	2	 0.0	 0.0	 3	   0.001000	  17.063000	 741.000000;
	2	 0.0	 0.0	 3	   0.000000	   0.000000	   0.000000;
	2	 0.0	 0.0	 3	   0.000000	   0.000000	   0.000000;
	2	 0.0	 0.0	 3	   0.000000	   0.000000	   0.000000;
	2	 0.0	 0.0	 3	   0.000000	   0.000000	   0.000000;
	2	 0.0	 0.0	 3	   0.000000	   0.000000	   0.000000;
	2	 0.0	 0.0	 3	   0.000000	   0.000000	   0.000000;
	2	 0.0	 0.0	 3	   0.000000	   0.000000	   0.000000;
	2	 0.0	 0.0	 3	   0.000000	   0.000000	   0.000000;
	2	 0.0	 0.0	 3	   0.000000	   0.000000	   0.000000;
	2	 0.0	 0.0	 3	   0.000000	   0.000000	   0.000000;
	2	 0.0	 0.0	 3	   0.000000	   0.000000	   0.000000;
	2	 0.0	 0.0	 3	   0.000000	   0.000000	   0.000000;
	2	 0.0	 0.0	 3	   0.000000	   0.000000	   0.000000;
	2	 0.0	 0.0	 3	   0.000000	   0.000000	   0.000000;
	2	 0.0	 0.0	 3	   0.001000	  13.771000	 726.900000;
	2	 0.0	 0.0	 3	   0.001000	  14.554000	 726.900000;
	2	 0.0	 0.0	 3	   0.000000	   0.000000	   0.000000;
	2	 0.0	 0.0	 3	   0.000000	   0.000000	   0.000000;
	2	 0.0	 0.0	 3	   0.002000	  19.673000	 949.000000;
	2	 0.0	 0.0	 3	   0.001000	  15.435000	 949.000000;
	2	 0.0	 0.0	 3	   0.001000	  16.186000	 949.000000;
	2	 0.0	 0.0	 3	   0.000000	   0.000000	   0.000000;
	2	 0.0	 0.0	 3	   0.000000	   0.000000	   0.000000;
	2	 0.0	 0.0	 3	   0.000000	   0.000000	   0.000000;
	2	 0.0	 0.0	 3	   0.000000	   0.000000	   0.000000;
	2	 0.0	 0.0	 3	   0.000000	   0.000000	   0.000000;
	2	 0.0	 0.0	 3	   0.000000	   0.000000	   0.000000;
	2	 0.0	 0.0	 3	   0.000000	   0.000000	   0.000000;
	2	 0.0	 0.0	 3	   0.000000	   0.000000	   0.000000;
	2	 0.0	 0.0	 3	   0.000000	   0.000000	   0.000000;
	2	 0.0	 0.0	 3	   0.000000	   0.000000	   0.000000;
	2	 0.0	 0.0	 3	   0.000000	   0.000000	   0.000000;
	2	 0.0	 0.0	 3	   0.000000	   0.000000	   0.000000;
	2	 0.0	 0.0	 3	   0.000000	   0.000000	   0.000000;
	2	 0.0	 0.0	 3	   0.000000	   0.000000	   0.000000;
	2	 0.0	 0.0	 3	   0.000000	   0.000000	   0.000000;
	2	 0.0	 0.0	 3	   0.000000	   0.000000	   0.000000;
	2	 0.0	 0.0	 3	   0.000000	   0.000000	   0.000000;
	2	 0.0	 0.0	 3	   0.000000	   0.000000	   0.000000;
	2	 0.0	 0.0	 3	   0.000000	   0.000000	   0.000000;
	2	 0.0	 0.0	 3	   0.000000	   0.000000	   0.000000;
	2	 0.0	 0.0	 3	   0.000000	   0.000000	   0.000000;
	2	 0.0	 0.0	 3	   0.000000	   0.000000	   0.000000;
	2	 0.0	 0.0	 3	   0.000000	   0.000000	   0.000000;
	2	 0.0	 0.0	 3	   0.001000	  15.235000	 639.000000;
	2	 0.0	 0.0	 3	   0.000000	   0.000000	   0.000000;
	2	 0.0	 0.0	 3	   0.000000	   0.000000	   0.000000;
	2	 0.0	 0.0	 3	   0.000000	   0.000000	   0.000000;
	2	 0.0	 0.0	 3	   0.000000	   0.000000	   0.000000;
	2	 0.0	 0.0	 3	   0.000000	   0.000000	   0.000000;
	2	 0.0	 0.0	 3	   0.000000	   0.000000	   0.000000;
	2	 0.0	 0.0	 3	   0.000000	   0.000000	   0.000000;
	2	 0.0	 0.0	 3	   0.000000	   0.000000	   0.000000;
	2	 0.0	 0.0	 3	   0.001000	  14.640000	 925.000000;
	2	 0.0	 0.0	 3	   0.002000	  18.958000	 925.000000;
	2	 0.0	 0.0	 3	   0.001000	  16.316000	 925.000000;
	2	 0.0	 0.0	 3	   0.000000	   0.000000	   0.000000;
	2	 0.0	 0.0	 3	   0.000000	   0.000000	   0.000000;
	2	 0.0	 0.0	 3	   0.000000	   0.000000	   0.000000;
	2	 0.0	 0.0	 3	   0.000000	   0.000000	   0.000000;
	2	 0.0	 0.0	 3	   0.000000	   0.000000	   0.000000;
	2	 0.0	 0.0	 3	   0.000000	   0.000000	   0.000000;
	2	 0.0	 0.0	 3	   0.001000	  16.179000	 813.220000;
	2	 0.0	 0.0	 3	   0.001000	  13.515000	 813.220000;
	2	 0.0	 0.0	 3	   0.000000	   0.000000	   0.000000;
	2	 0.0	 0.0	 3	   0.000000	   0.000000	   0.000000;
	2	 0.0	 0.0	 3	   0.000000	   0.000000	   0.000000;
	2	 0.0	 0.0	 3	   0.000000	   0.000000	   0.000000;
	2	 0.0	 0.0	 3	   0.000000	   0.000000	   0.000000;
	2	 0.0	 0.0	 3	   0.000000	   0.000000	   0.000000;
...
];

%% branch data
%	fbus	tbus	r	x	b	rateA	rateB	rateC	ratio	angle	status	angmin	angmax
mpc.branch = [
	10002	 10001	 0.057474	 0.297874	 0.04557	 185.33	 0.0	 0.0	 0.0	 0.0	 1	 -30.0	 30.0;
	10011	 10001	 0.027895	 0.200986	 0.06271	 167.88	 0.0	 0.0	 0.0	 0.0	 1	 -30.0	 30.0;
	10014	 10002	 0.028286	 0.132954	 0.07205	 207.43	 0.0	 0.0	 0.0	 0.0	 1	 -30.0	 30.0;
	10004	 10003	 0.012099	 0.073288	 0.01171	 170.67	 0.0	 0.0	 0.0	 0.0	 1	 -30.0	 30.0;
	10003	 10010	 0.012423	 0.079127	 0.01766	 201.54	 0.0	 0.0	 0.0	 0.0	 1	 -30.0	 30.0;
	10937	 10003	 0.009516	 0.050189	 0.02744	 211.8	 0.0	 0.0	 0.0	 0.0	 1	 -30.0	 30.0;
	10004	 10005	 0.000201	 0.001173	 0.0	 0.0	 0.0	 0.0	 0.0	 0.0	 1	 -30.0	 30.0;
	10004	 10937	 0.019482	 0.100643	 0.02121	 195.1	 0.0	 0.0	 0.0	 0.0	 1	 -30.0	 30.0;
	10006	 10007	 0.000272	 0.001137	 0.0	 0.0	 0.0	 0.0	 0.0	 0.0	 1	 -30.0	 30.0;
	10008	 10007	 0.00871	 0.065557	 0.0156	 212.34	 0.0	 0.0	 0.0	 0.0	 1	 -30.0	 30.0;
	10007	 13019	 0.005848	 0.038664	 0.02062	 218.55	 0.0	 0.0	 0.0	 0.0	 1	 -30.0	 30.0;
	10007	 13028	 0.018994	 0.103855	 0.1879	 231.63	 0.0	 0.0	 0.0	 0.0	 1	 -30.0	 30.0;
	10008	 10009	 0.000236	 0.001046	 0.0	 0.0	 0.0	 0.0	 0.0	 0.0	 1	 -30.0	 30.0;
	10016	 10008	 0.013033	 0.083799	 0.0301	 229.92	 0.0	 0.0	 0.0	 0.0	 1	 -30.0	 30.0;
	13019	 10008	 0.01355	 0.065214	 0.032	 184.78	 0.0	 0.0	 0.0	 0.0	 1	 -30.0	 30.0;
	10014	 10010	 0.007781	 0.030841	 0.02241	 197.37	 0.0	 0.0	 0.0	 0.0	 1	 -30.0	 30.0;
	10011	 10020	 0.022817	 0.11103	 0.02458	 214.06	 0.0	 0.0	 0.0	 0.0	 1	 -30.0	 30.0;
	10013	 10012	 0.000261	 0.019344	 0.0	 473.63	 0.0	 0.0	 1.0	 0.0	 1	 -30.0	 30.0;
	10012	 10023	 0.001396	 0.016565	 0.31452	 1105.1	 0.0	 0.0	 0.0	 0.0	 1	 -30.0	 30.0;
	10012	 10987	 0.000883	 0.009393	 0.17078	 1237.08	 0.0	 0.0	 0.0	 0.0	 1	 -30.0	 30.0;
	10014	 10013	 0.002093	 0.00845	 0.00407	 236.46	 0.0	 0.0	 0.0	 0.0	 1	 -30.0	 30.0;
	10013	 10076	 0.015367	 0.101403	 0.11511	 239.71	 0.0	 0.0	 0.0	 0.0	 1	 -30.0	 30.0;
	10014	 10015	 0.00027	 0.001089	 0.0	 0.0	 0.0	 0.0	 0.0	 0.0	 1	 -30.0	 30.0;
	10016	 10017	 0.00025	 0.001152	 0.0	 0.0	 0.0	 0.0	 0.0	 0.0	 1	 -30.0	 30.0;
	10016	 13463	 0.008946	 0.046857	 0.19885	 245.26	 0.0	 0.0	 0.0	 0.0	 1	 -30.0	 30.0;
	10018	 10032	 0.002241	 0.0146	 0.03367	 250.62	 0.0	 0.0	 0.0	 0.0	 1	 -30.0	 30.0;
	10018	 10988	 0.006284	 0.038361	 0.02021	 263.59	 0.0	 0.0	 0.0	 0.0	 1	 -30.0	 30.0;
	10020	 10019	 0.000533	 0.033552	 0.0	 445.05	 0.0	 0.0	 0.975	 0.0	 1	 -30.0	 30.0;
	10730	 10019	 0.002142	 0.026863	 0.58195	 1150.4	 0.0	 0.0	 0.0	 0.0	 1	 -30.0	 30.0;
	10020	 10029	 0.005708	 0.039706	 0.02239	 233.76	 0.0	 0.0	 0.0	 0.0	 1	 -30.0	 30.0;
	10021	 13074	 0.006464	 0.035113	 0.12496	 251.36	 0.0	 0.0	 0.0	 0.0	 1	 -30.0	 30.0;
	10021	 13512	 0.002495	 0.018	 0.01137	 201.56	 0.0	 0.0	 0.0	 0.0	 1	 -30.0	 30.0;
	13690	 10021	 0.005193	 0.037293	 0.01323	 247.31	 0.0	 0.0	 0.0	 0.0	 1	 -30.0	 30.0;
	10022	 10024	 0.001583	 0.010843	 0.00579	 204.48	 0.0	 0.0	 0.0	 0.0	 1	 -30.0	 30.0;
	10022	 10030	 0.007083	 0.036561	 0.01221	 210.69	 0.0	 0.0	 0.0	 0.0	 1	 -30.0	 30.0;
	10024	 10023	 0.000558	 0.024885	 0.0	 465.77	 0.0	 0.0	 1.03125	 0.0	 1	 -30.0	 30.0;
	10730	 10023	 0.000587	 0.00738	 0.21892	 1205.73	 0.0	 0.0	 0.0	 0.0	 1	 -30.0	 30.0;
...